# CIF file generated by openbabel 3.1.0, see https://openbabel.org
data_I
_chemical_name_common 'image0'
_cell_length_a 22.535
_cell_length_b 22.535
_cell_length_c 29.635
_cell_angle_alpha 90
_cell_angle_beta 90
_cell_angle_gamma 120
_space_group_name_H-M_alt 'P 1'
_space_group_name_Hall 'P 1'
loop_
    _symmetry_equiv_pos_as_xyz
    x,y,z
loop_
    _atom_site_label
    _atom_site_type_symbol
    _atom_site_fract_x
    _atom_site_fract_y
    _atom_site_fract_z
    _atom_site_occupancy
    Cu1      Cu       0.25903    0.45235    0.72259    1.000
    Cu2      Cu       0.22002    0.06155    0.64952    1.000
    C1       C        0.34510    0.41500    0.68000    1.000
    C2       C        0.40490    0.40250    0.67380    1.000
    H1       H        0.44110    0.44080    0.65750    1.000
    H2       H        0.42270    0.40060    0.70330    1.000
    C3       C        0.38530    0.33690    0.64850    1.000
    H3       H        0.36550    0.33850    0.61950    1.000
    C4       C        0.33180    0.27380    0.67440    1.000
    H4       H        0.35310    0.26840    0.70130    1.000
    H5       H        0.29540    0.28200    0.68400    1.000
    C5       C        0.30040    0.20740    0.64780    1.000
    C6       C        0.44800    0.32770    0.63930    1.000
    H6       H        0.47060    0.32980    0.66760    1.000
    H7       H        0.43250    0.28300    0.62600    1.000
    C7       C        0.49850    0.38240    0.60780    1.000
    C8       C        0.29220    0.54050    0.65078    1.000
    C9       C        0.34070    0.60560    0.62509    1.000
    H8       H        0.33050    0.59860    0.59310    1.000
    H9       H        0.38750    0.61590    0.62940    1.000
    C10      C        0.12920    0.06570    0.70730    1.000
    C11      C        0.06400    0.06470    0.72130    1.000
    H10      H        0.06430    0.10490    0.70940    1.000
    H11      H        0.06230    0.06640    0.75400    1.000
    C12      C        0.20520    0.30590    0.75050    1.000
    H12      H        0.25010    0.31510    0.74790    1.000
    C13      C        0.15450    0.24030    0.76170    1.000
    H13      H        0.16540    0.20610    0.76660    1.000
    C14      C        0.08880    0.22640    0.76540    1.000
    H14      H        0.05420    0.18240    0.77280    1.000
    C15      C        0.07330    0.27810    0.75830    1.000
    H15      H        0.02830    0.26920    0.76010    1.000
    C16      C        0.12680    0.34370    0.74830    1.000
    C17      C        0.11760    0.40400    0.74300    1.000
    C18      C        0.05800    0.40240    0.75190    1.000
    H16      H        0.01970    0.36240    0.76190    1.000
    C19      C        0.05590    0.46350    0.74570    1.000
    H17      H        0.01540    0.46390    0.75090    1.000
    C20      C        0.11320    0.52170    0.73210    1.000
    H18      H        0.11290    0.56260    0.72880    1.000
    C21      C        0.17150    0.51840    0.72340    1.000
    H19      H        0.21050    0.55760    0.71340    1.000
    C22      C        0.36130    0.07820    0.65100    1.000
    H20      H        0.37780    0.12480    0.65480    1.000
    C23      C        0.40810    0.05440    0.64900    1.000
    H21      H        0.45480    0.08440    0.65250    1.000
    C24      C        0.38350    0.98640    0.64180    1.000
    H22      H        0.41410    0.97020    0.63900    1.000
    C25      C        0.31430    0.94120    0.63880    1.000
    H23      H        0.29730    0.89450    0.63490    1.000
    C26      C        0.27090    0.96830    0.64170    1.000
    C27      C        0.19650    0.92600    0.63590    1.000
    C28      C        0.16150    0.85600    0.62930    1.000
    H24      H        0.18480    0.83160    0.63030    1.000
    C29      C        0.09080    0.82180    0.62100    1.000
    H25      H        0.06660    0.77460    0.61630    1.000
    C30      C        0.05800    0.85940    0.62000    1.000
    H26      H        0.01120    0.83840    0.61430    1.000
    C31      C        0.09680    0.93020    0.62770    1.000
    H27      H        0.07460    0.95560    0.62730    1.000
    N1       N        0.19180    0.35670    0.74313    1.000
    N2       N        0.17420    0.46110    0.72879    1.000
    N3       N        0.29360    0.03570    0.64760    1.000
    N4       N        0.16370    0.96240    0.63530    1.000
    O1       O        0.33560    0.43380    0.71905    1.000
    O2       O        0.30840    0.40750    0.64780    1.000
    O3       O        0.28260    0.15430    0.66890    1.000
    O4       O        0.29180    0.20810    0.60630    1.000
    O5       O        0.55310    0.43100    0.62260    1.000
    O6       O        0.48290    0.37720    0.56570    1.000
    O7       O        0.31210    0.53886    0.69144    1.000
    O8       O        0.23800    0.49520    0.63400    1.000
    O9       O        0.13990    0.06860    0.66488    1.000
    O10      O        0.16760    0.06200    0.73585    1.000
    Cu3      Cu       0.54403    0.10754    0.54020    1.000
    C32      C        0.62403    0.20427    0.48493    1.000
    C33      C        0.67293    0.27247    0.46408    1.000
    H28      H        0.66593    0.26887    0.43167    1.000
    H29      H        0.71933    0.28207    0.46967    1.000
    C34      C        0.50273    0.95997    0.54697    1.000
    H30      H        0.54933    0.97557    0.54927    1.000
    C35      C        0.45623    0.88887    0.54927    1.000
    H31      H        0.47113    0.85727    0.55207    1.000
    C36      C        0.38803    0.86897    0.54727    1.000
    H32      H        0.35553    0.82297    0.55097    1.000
    C37      C        0.36733    0.91367    0.54007    1.000
    H33      H        0.32083    0.89887    0.53717    1.000
    C38      C        0.41573    0.98297    0.53707    1.000
    C39      C        0.40043    0.03807    0.53277    1.000
    C40      C        0.33063    0.02797    0.52977    1.000
    H34      H        0.29303    0.98387    0.52947    1.000
    C41      C        0.32163    0.07817    0.52777    1.000
    H35      H        0.27713    0.07047    0.52567    1.000
    C42      C        0.38183    0.15277    0.52857    1.000
    H36      H        0.37623    0.19097    0.52827    1.000
    C43      C        0.44593    0.15647    0.52967    1.000
    H37      H        0.48483    0.19967    0.52847    1.000
    N5       N        0.48213    0.00557    0.54177    1.000
    N6       N        0.45463    0.10337    0.53237    1.000
    O11      O        0.60983    0.14957    0.46491    1.000
    O12      O        0.59863    0.20397    0.52344    1.000
    Cu4      Cu       0.54765    0.80668    0.72259    1.000
    Cu5      Cu       0.93845    0.15847    0.64952    1.000
    C44      C        0.58500    0.93010    0.68000    1.000
    C45      C        0.59750    0.00240    0.67380    1.000
    H38      H        0.55920    0.00030    0.65750    1.000
    H39      H        0.59940    0.02210    0.70330    1.000
    C46      C        0.66310    0.04840    0.64850    1.000
    H40      H        0.66150    0.02700    0.61950    1.000
    C47      C        0.72620    0.05800    0.67440    1.000
    H41      H        0.73160    0.08470    0.70130    1.000
    H42      H        0.71800    0.01340    0.68400    1.000
    C48      C        0.79260    0.09300    0.64780    1.000
    C49      C        0.67230    0.12030    0.63930    1.000
    H43      H        0.67020    0.14080    0.66760    1.000
    H44      H        0.71700    0.14950    0.62600    1.000
    C50      C        0.61760    0.11610    0.60780    1.000
    C51      C        0.45950    0.75170    0.65078    1.000
    C52      C        0.39440    0.73510    0.62509    1.000
    H45      H        0.40140    0.73190    0.59310    1.000
    H46      H        0.38410    0.77160    0.62940    1.000
    C53      C        0.93430    0.06350    0.70730    1.000
    C54      C        0.93530    0.99930    0.72130    1.000
    H47      H        0.89510    0.95940    0.70940    1.000
    H48      H        0.93360    0.99590    0.75400    1.000
    C55      C        0.69410    0.89930    0.75050    1.000
    H49      H        0.68490    0.93500    0.74790    1.000
    C56      C        0.75970    0.91420    0.76170    1.000
    H50      H        0.79390    0.95930    0.76660    1.000
    C57      C        0.77360    0.86240    0.76540    1.000
    H51      H        0.81760    0.87180    0.77280    1.000
    C58      C        0.72190    0.79520    0.75830    1.000
    H52      H        0.73080    0.75910    0.76010    1.000
    C59      C        0.65630    0.78310    0.74830    1.000
    C60      C        0.59600    0.71360    0.74300    1.000
    C61      C        0.59760    0.65560    0.75190    1.000
    H53      H        0.63760    0.65730    0.76190    1.000
    C62      C        0.53650    0.59240    0.74570    1.000
    H54      H        0.53610    0.55150    0.75090    1.000
    C63      C        0.47830    0.59150    0.73210    1.000
    H55      H        0.43740    0.55030    0.72880    1.000
    C64      C        0.48160    0.65310    0.72340    1.000
    H56      H        0.44240    0.65290    0.71340    1.000
    C65      C        0.92180    0.28310    0.65100    1.000
    H57      H        0.87520    0.25300    0.65480    1.000
    C66      C        0.94560    0.35370    0.64900    1.000
    H58      H        0.91560    0.37040    0.65250    1.000
    C67      C        0.01360    0.39710    0.64180    1.000
    H59      H        0.02980    0.44390    0.63900    1.000
    C68      C        0.05880    0.37310    0.63880    1.000
    H60      H        0.10550    0.40280    0.63490    1.000
    C69      C        0.03170    0.30260    0.64170    1.000
    C70      C        0.07400    0.27050    0.63590    1.000
    C71      C        0.14400    0.30550    0.62930    1.000
    H61      H        0.16840    0.35320    0.63030    1.000
    C72      C        0.17820    0.26900    0.62100    1.000
    H62      H        0.22540    0.29200    0.61630    1.000
    C73      C        0.14060    0.19860    0.62000    1.000
    H63      H        0.16160    0.17280    0.61430    1.000
    C74      C        0.06980    0.16660    0.62770    1.000
    H64      H        0.04440    0.11900    0.62730    1.000
    N7       N        0.64330    0.83510    0.74313    1.000
    N8       N        0.53890    0.71310    0.72879    1.000
    N9       N        0.96430    0.25790    0.64760    1.000
    N10      N        0.03760    0.20130    0.63530    1.000
    O13      O        0.56620    0.90180    0.71905    1.000
    O14      O        0.59250    0.90090    0.64780    1.000
    O15      O        0.84570    0.12830    0.66890    1.000
    O16      O        0.79190    0.08370    0.60630    1.000
    O17      O        0.56900    0.12210    0.62260    1.000
    O18      O        0.62280    0.10570    0.56570    1.000
    O19      O        0.46114    0.77324    0.69144    1.000
    O20      O        0.50480    0.74280    0.63400    1.000
    O21      O        0.93140    0.07130    0.66488    1.000
    O22      O        0.93800    0.10560    0.73585    1.000
    Cu6      Cu       0.89246    0.43650    0.54020    1.000
    C75      C        0.79573    0.41977    0.48493    1.000
    C76      C        0.72753    0.40047    0.46408    1.000
    H65      H        0.73113    0.39707    0.43167    1.000
    H66      H        0.71793    0.43727    0.46967    1.000
    C77      C        0.04003    0.54277    0.54697    1.000
    H67      H        0.02443    0.57377    0.54927    1.000
    C78      C        0.11113    0.56737    0.54927    1.000
    H68      H        0.14273    0.61387    0.55207    1.000
    C79      C        0.13103    0.51907    0.54727    1.000
    H69      H        0.17703    0.53257    0.55097    1.000
    C80      C        0.08633    0.45367    0.54007    1.000
    H70      H        0.10113    0.42197    0.53717    1.000
    C81      C        0.01703    0.43277    0.53707    1.000
    C82      C        0.96193    0.36237    0.53277    1.000
    C83      C        0.97203    0.30267    0.52977    1.000
    H71      H        0.01613    0.30917    0.52947    1.000
    C84      C        0.92183    0.24347    0.52777    1.000
    H72      H        0.92953    0.20667    0.52567    1.000
    C85      C        0.84723    0.22907    0.52857    1.000
    H73      H        0.80903    0.18527    0.52827    1.000
    C86      C        0.84353    0.28947    0.52967    1.000
    H74      H        0.80033    0.28517    0.52847    1.000
    N11      N        0.99443    0.47657    0.54177    1.000
    N12      N        0.89663    0.35127    0.53237    1.000
    O23      O        0.85043    0.46027    0.46491    1.000
    O24      O        0.79603    0.39467    0.52344    1.000
    Cu7      Cu       0.19332    0.74097    0.72259    1.000
    Cu8      Cu       0.84153    0.77998    0.64952    1.000
    C87      C        0.06990    0.65490    0.68000    1.000
    C88      C        0.99760    0.59510    0.67380    1.000
    H75      H        0.99970    0.55890    0.65750    1.000
    H76      H        0.97790    0.57730    0.70330    1.000
    C89      C        0.95160    0.61470    0.64850    1.000
    H77      H        0.97300    0.63450    0.61950    1.000
    C90      C        0.94200    0.66820    0.67440    1.000
    H78      H        0.91530    0.64690    0.70130    1.000
    H79      H        0.98660    0.70460    0.68400    1.000
    C91      C        0.90700    0.69960    0.64780    1.000
    C92      C        0.87970    0.55200    0.63930    1.000
    H80      H        0.85920    0.52940    0.66760    1.000
    H81      H        0.85050    0.56750    0.62600    1.000
    C93      C        0.88390    0.50150    0.60780    1.000
    C94      C        0.24830    0.70780    0.65078    1.000
    C95      C        0.26490    0.65930    0.62509    1.000
    H82      H        0.26810    0.66950    0.59310    1.000
    H83      H        0.22840    0.61250    0.62940    1.000
    C96      C        0.93650    0.87080    0.70730    1.000
    C97      C        0.00070    0.93600    0.72130    1.000
    H84      H        0.04060    0.93570    0.70940    1.000
    H85      H        0.00410    0.93770    0.75400    1.000
    C98      C        0.10070    0.79480    0.75050    1.000
    H86      H        0.06500    0.74990    0.74790    1.000
    C99      C        0.08580    0.84550    0.76170    1.000
    H87      H        0.04070    0.83460    0.76660    1.000
    C100     C        0.13760    0.91120    0.76540    1.000
    H88      H        0.12820    0.94580    0.77280    1.000
    C101     C        0.20480    0.92670    0.75830    1.000
    H89      H        0.24090    0.97170    0.76010    1.000
    C102     C        0.21690    0.87320    0.74830    1.000
    C103     C        0.28640    0.88240    0.74300    1.000
    C104     C        0.34440    0.94200    0.75190    1.000
    H90      H        0.34270    0.98030    0.76190    1.000
    C105     C        0.40760    0.94410    0.74570    1.000
    H91      H        0.44850    0.98460    0.75090    1.000
    C106     C        0.40850    0.88680    0.73210    1.000
    H92      H        0.44970    0.88710    0.72880    1.000
    C107     C        0.34690    0.82850    0.72340    1.000
    H93      H        0.34710    0.78950    0.71340    1.000
    C108     C        0.71690    0.63870    0.65100    1.000
    H94      H        0.74700    0.62220    0.65480    1.000
    C109     C        0.64630    0.59190    0.64900    1.000
    H95      H        0.62960    0.54520    0.65250    1.000
    C110     C        0.60290    0.61650    0.64180    1.000
    H96      H        0.55610    0.58590    0.63900    1.000
    C111     C        0.62690    0.68570    0.63880    1.000
    H97      H        0.59720    0.70270    0.63490    1.000
    C112     C        0.69740    0.72910    0.64170    1.000
    C113     C        0.72950    0.80350    0.63590    1.000
    C114     C        0.69450    0.83850    0.62930    1.000
    H98      H        0.64680    0.81520    0.63030    1.000
    C115     C        0.73100    0.90920    0.62100    1.000
    H99      H        0.70800    0.93340    0.61630    1.000
    C116     C        0.80140    0.94200    0.62000    1.000
    H100     H        0.82720    0.98880    0.61430    1.000
    C117     C        0.83340    0.90320    0.62770    1.000
    H101     H        0.88100    0.92540    0.62730    1.000
    N13      N        0.16490    0.80820    0.74313    1.000
    N14      N        0.28690    0.82580    0.72879    1.000
    N15      N        0.74210    0.70640    0.64760    1.000
    N16      N        0.79870    0.83630    0.63530    1.000
    O25      O        0.09820    0.66440    0.71905    1.000
    O26      O        0.09910    0.69160    0.64780    1.000
    O27      O        0.87170    0.71740    0.66890    1.000
    O28      O        0.91630    0.70820    0.60630    1.000
    O29      O        0.87790    0.44690    0.62260    1.000
    O30      O        0.89430    0.51710    0.56570    1.000
    O31      O        0.22676    0.68790    0.69144    1.000
    O32      O        0.25720    0.76200    0.63400    1.000
    O33      O        0.92870    0.86010    0.66488    1.000
    O34      O        0.89440    0.83240    0.73585    1.000
    Cu9      Cu       0.56350    0.45597    0.54020    1.000
    C118     C        0.58023    0.37597    0.48493    1.000
    C119     C        0.59953    0.32707    0.46408    1.000
    H102     H        0.60293    0.33407    0.43167    1.000
    H103     H        0.56273    0.28067    0.46967    1.000
    C120     C        0.45723    0.49727    0.54697    1.000
    H104     H        0.42623    0.45067    0.54927    1.000
    C121     C        0.43263    0.54377    0.54927    1.000
    H105     H        0.38613    0.52887    0.55207    1.000
    C122     C        0.48093    0.61197    0.54727    1.000
    H106     H        0.46743    0.64447    0.55097    1.000
    C123     C        0.54633    0.63267    0.54007    1.000
    H107     H        0.57803    0.67917    0.53717    1.000
    C124     C        0.56723    0.58427    0.53707    1.000
    C125     C        0.63763    0.59957    0.53277    1.000
    C126     C        0.69733    0.66937    0.52977    1.000
    H108     H        0.69083    0.70697    0.52947    1.000
    C127     C        0.75653    0.67837    0.52777    1.000
    H109     H        0.79333    0.72287    0.52567    1.000
    C128     C        0.77093    0.61817    0.52857    1.000
    H110     H        0.81473    0.62377    0.52827    1.000
    C129     C        0.71053    0.55407    0.52967    1.000
    H111     H        0.71483    0.51517    0.52847    1.000
    N17      N        0.52343    0.51787    0.54177    1.000
    N18      N        0.64873    0.54537    0.53237    1.000
    O35      O        0.53973    0.39017    0.46491    1.000
    O36      O        0.60533    0.40137    0.52344    1.000
    C130     C        0.33333    0.66667    0.64170    1.000
    H112     H        0.33333    0.66667    0.67480    1.000
    C131     C        0.66667    0.33333    0.48097    1.000
    H113     H        0.66667    0.33333    0.51407    1.000
    C132     C        0.00000    0.00000    0.70420    1.000
    H114     H        0.00000    0.00000    0.67110    1.000
    Cu10     Cu       0.21070    0.44087    0.87353    1.000
    C133     C        0.29070    0.53760    0.81826    1.000
    C134     C        0.33960    0.60580    0.79741    1.000
    H115     H        0.33260    0.60220    0.76500    1.000
    H116     H        0.38600    0.61540    0.80300    1.000
    C135     C        0.16940    0.29330    0.88030    1.000
    H117     H        0.21600    0.30890    0.88260    1.000
    C136     C        0.12290    0.22220    0.88260    1.000
    H118     H        0.13780    0.19060    0.88540    1.000
    C137     C        0.05470    0.20230    0.88060    1.000
    H119     H        0.02220    0.15630    0.88430    1.000
    C138     C        0.03400    0.24700    0.87340    1.000
    H120     H        0.98750    0.23220    0.87050    1.000
    C139     C        0.08240    0.31630    0.87040    1.000
    C140     C        0.06710    0.37140    0.86610    1.000
    C141     C        0.99730    0.36130    0.86310    1.000
    H121     H        0.95970    0.31720    0.86280    1.000
    C142     C        0.98830    0.41150    0.86110    1.000
    H122     H        0.94380    0.40380    0.85900    1.000
    C143     C        0.04850    0.48610    0.86190    1.000
    H123     H        0.04290    0.52430    0.86160    1.000
    C144     C        0.11260    0.48980    0.86300    1.000
    H124     H        0.15150    0.53300    0.86180    1.000
    N19      N        0.14880    0.33890    0.87510    1.000
    N20      N        0.12130    0.43670    0.86570    1.000
    O37      O        0.27650    0.48290    0.79824    1.000
    O38      O        0.26530    0.53730    0.85677    1.000
    Cu11     Cu       0.92570    0.78568    0.05592    1.000
    Cu12     Cu       0.88669    0.39488    0.98285    1.000
    C145     C        0.01177    0.74833    0.01333    1.000
    C146     C        0.07157    0.73583    0.00713    1.000
    H125     H        0.10777    0.77413    0.99083    1.000
    H126     H        0.08937    0.73393    0.03663    1.000
    C147     C        0.05197    0.67023    0.98183    1.000
    H127     H        0.03217    0.67183    0.95283    1.000
    C148     C        0.99847    0.60713    0.00773    1.000
    H128     H        0.01977    0.60173    0.03463    1.000
    H129     H        0.96207    0.61533    0.01733    1.000
    C149     C        0.96707    0.54073    0.98113    1.000
    C150     C        0.11467    0.66103    0.97263    1.000
    H130     H        0.13727    0.66313    0.00093    1.000
    H131     H        0.09917    0.61633    0.95933    1.000
    C151     C        0.16517    0.71573    0.94113    1.000
    C152     C        0.95887    0.87383    0.98411    1.000
    C153     C        0.00737    0.93893    0.95842    1.000
    H132     H        0.99717    0.93193    0.92643    1.000
    H133     H        0.05417    0.94923    0.96273    1.000
    C154     C        0.79587    0.39903    0.04063    1.000
    C155     C        0.73067    0.39803    0.05463    1.000
    H134     H        0.73097    0.43823    0.04273    1.000
    H135     H        0.72897    0.39973    0.08733    1.000
    C156     C        0.87187    0.63923    0.08383    1.000
    H136     H        0.91677    0.64843    0.08123    1.000
    C157     C        0.82117    0.57363    0.09503    1.000
    H137     H        0.83207    0.53943    0.09993    1.000
    C158     C        0.75547    0.55973    0.09873    1.000
    H138     H        0.72087    0.51573    0.10613    1.000
    C159     C        0.73997    0.61143    0.09163    1.000
    H139     H        0.69497    0.60253    0.09343    1.000
    C160     C        0.79347    0.67703    0.08163    1.000
    C161     C        0.78427    0.73733    0.07633    1.000
    C162     C        0.72467    0.73573    0.08523    1.000
    H140     H        0.68637    0.69573    0.09523    1.000
    C163     C        0.72257    0.79683    0.07903    1.000
    H141     H        0.68207    0.79723    0.08423    1.000
    C164     C        0.77987    0.85503    0.06543    1.000
    H142     H        0.77957    0.89593    0.06213    1.000
    C165     C        0.83817    0.85173    0.05673    1.000
    H143     H        0.87717    0.89093    0.04673    1.000
    C166     C        0.02797    0.41153    0.98433    1.000
    H144     H        0.04447    0.45813    0.98813    1.000
    C167     C        0.07477    0.38773    0.98233    1.000
    H145     H        0.12147    0.41773    0.98583    1.000
    C168     C        0.05017    0.31973    0.97513    1.000
    H146     H        0.08077    0.30353    0.97233    1.000
    C169     C        0.98097    0.27453    0.97213    1.000
    H147     H        0.96397    0.22783    0.96823    1.000
    C170     C        0.93757    0.30163    0.97503    1.000
    C171     C        0.86317    0.25933    0.96923    1.000
    C172     C        0.82817    0.18933    0.96263    1.000
    H148     H        0.85147    0.16493    0.96363    1.000
    C173     C        0.75747    0.15513    0.95433    1.000
    H149     H        0.73327    0.10793    0.94963    1.000
    C174     C        0.72467    0.19273    0.95333    1.000
    H150     H        0.67787    0.17173    0.94763    1.000
    C175     C        0.76347    0.26353    0.96103    1.000
    H151     H        0.74127    0.28893    0.96063    1.000
    N21      N        0.85847    0.69003    0.07646    1.000
    N22      N        0.84087    0.79443    0.06212    1.000
    N23      N        0.96027    0.36903    0.98093    1.000
    N24      N        0.83037    0.29573    0.96863    1.000
    O39      O        0.00227    0.76713    0.05238    1.000
    O40      O        0.97507    0.74083    0.98113    1.000
    O41      O        0.94927    0.48763    0.00223    1.000
    O42      O        0.95847    0.54143    0.93963    1.000
    O43      O        0.21977    0.76433    0.95593    1.000
    O44      O        0.14957    0.71053    0.89903    1.000
    O45      O        0.97877    0.87219    0.02477    1.000
    O46      O        0.90467    0.82853    0.96733    1.000
    O47      O        0.80657    0.40193    0.99821    1.000
    O48      O        0.83427    0.39533    0.06918    1.000
    Cu13     Cu       0.55913    0.76983    0.87353    1.000
    C176     C        0.46240    0.75310    0.81826    1.000
    C177     C        0.39420    0.73380    0.79741    1.000
    H152     H        0.39780    0.73040    0.76500    1.000
    H153     H        0.38460    0.77060    0.80300    1.000
    C178     C        0.70670    0.87610    0.88030    1.000
    H154     H        0.69110    0.90710    0.88260    1.000
    C179     C        0.77780    0.90070    0.88260    1.000
    H155     H        0.80940    0.94720    0.88540    1.000
    C180     C        0.79770    0.85240    0.88060    1.000
    H156     H        0.84370    0.86590    0.88430    1.000
    C181     C        0.75300    0.78700    0.87340    1.000
    H157     H        0.76780    0.75530    0.87050    1.000
    C182     C        0.68370    0.76610    0.87040    1.000
    C183     C        0.62860    0.69570    0.86610    1.000
    C184     C        0.63870    0.63600    0.86310    1.000
    H158     H        0.68280    0.64250    0.86280    1.000
    C185     C        0.58850    0.57680    0.86110    1.000
    H159     H        0.59620    0.54000    0.85900    1.000
    C186     C        0.51390    0.56240    0.86190    1.000
    H160     H        0.47570    0.51860    0.86160    1.000
    C187     C        0.51020    0.62280    0.86300    1.000
    H161     H        0.46700    0.61850    0.86180    1.000
    N25      N        0.66110    0.80990    0.87510    1.000
    N26      N        0.56330    0.68460    0.86570    1.000
    O49      O        0.51710    0.79360    0.79824    1.000
    O50      O        0.46270    0.72800    0.85677    1.000
    Cu14     Cu       0.21432    0.14001    0.05592    1.000
    Cu15     Cu       0.60512    0.49180    0.98285    1.000
    C188     C        0.25167    0.26343    0.01333    1.000
    C189     C        0.26417    0.33573    0.00713    1.000
    H162     H        0.22587    0.33363    0.99083    1.000
    H163     H        0.26607    0.35543    0.03663    1.000
    C190     C        0.32977    0.38173    0.98183    1.000
    H164     H        0.32817    0.36033    0.95283    1.000
    C191     C        0.39287    0.39133    0.00773    1.000
    H165     H        0.39827    0.41803    0.03463    1.000
    H166     H        0.38467    0.34673    0.01733    1.000
    C192     C        0.45927    0.42633    0.98113    1.000
    C193     C        0.33897    0.45363    0.97263    1.000
    H167     H        0.33687    0.47413    0.00093    1.000
    H168     H        0.38367    0.48283    0.95933    1.000
    C194     C        0.28427    0.44943    0.94113    1.000
    C195     C        0.12617    0.08503    0.98411    1.000
    C196     C        0.06107    0.06843    0.95842    1.000
    H169     H        0.06807    0.06523    0.92643    1.000
    H170     H        0.05077    0.10493    0.96273    1.000
    C197     C        0.60097    0.39683    0.04063    1.000
    C198     C        0.60197    0.33263    0.05463    1.000
    H171     H        0.56177    0.29273    0.04273    1.000
    H172     H        0.60027    0.32923    0.08733    1.000
    C199     C        0.36077    0.23263    0.08383    1.000
    H173     H        0.35157    0.26833    0.08123    1.000
    C200     C        0.42637    0.24753    0.09503    1.000
    H174     H        0.46057    0.29263    0.09993    1.000
    C201     C        0.44027    0.19573    0.09873    1.000
    H175     H        0.48427    0.20513    0.10613    1.000
    C202     C        0.38857    0.12853    0.09163    1.000
    H176     H        0.39747    0.09243    0.09343    1.000
    C203     C        0.32297    0.11643    0.08163    1.000
    C204     C        0.26267    0.04693    0.07633    1.000
    C205     C        0.26427    0.98893    0.08523    1.000
    H177     H        0.30427    0.99063    0.09523    1.000
    C206     C        0.20317    0.92573    0.07903    1.000
    H178     H        0.20277    0.88483    0.08423    1.000
    C207     C        0.14497    0.92483    0.06543    1.000
    H179     H        0.10407    0.88363    0.06213    1.000
    C208     C        0.14827    0.98643    0.05673    1.000
    H180     H        0.10907    0.98623    0.04673    1.000
    C209     C        0.58847    0.61643    0.98433    1.000
    H181     H        0.54187    0.58633    0.98813    1.000
    C210     C        0.61227    0.68703    0.98233    1.000
    H182     H        0.58227    0.70373    0.98583    1.000
    C211     C        0.68027    0.73043    0.97513    1.000
    H183     H        0.69647    0.77723    0.97233    1.000
    C212     C        0.72547    0.70643    0.97213    1.000
    H184     H        0.77217    0.73613    0.96823    1.000
    C213     C        0.69837    0.63593    0.97503    1.000
    C214     C        0.74067    0.60383    0.96923    1.000
    C215     C        0.81067    0.63883    0.96263    1.000
    H185     H        0.83507    0.68653    0.96363    1.000
    C216     C        0.84487    0.60233    0.95433    1.000
    H186     H        0.89207    0.62533    0.94963    1.000
    C217     C        0.80727    0.53193    0.95333    1.000
    H187     H        0.82827    0.50613    0.94763    1.000
    C218     C        0.73647    0.49993    0.96103    1.000
    H188     H        0.71107    0.45233    0.96063    1.000
    N27      N        0.30997    0.16843    0.07646    1.000
    N28      N        0.20557    0.04643    0.06212    1.000
    N29      N        0.63097    0.59123    0.98093    1.000
    N30      N        0.70427    0.53463    0.96863    1.000
    O51      O        0.23287    0.23513    0.05238    1.000
    O52      O        0.25917    0.23423    0.98113    1.000
    O53      O        0.51237    0.46163    0.00223    1.000
    O54      O        0.45857    0.41703    0.93963    1.000
    O55      O        0.23567    0.45543    0.95593    1.000
    O56      O        0.28947    0.43903    0.89903    1.000
    O57      O        0.12781    0.10657    0.02477    1.000
    O58      O        0.17147    0.07613    0.96733    1.000
    O59      O        0.59807    0.40463    0.99821    1.000
    O60      O        0.60467    0.43893    0.06918    1.000
    Cu16     Cu       0.23017    0.78930    0.87353    1.000
    C219     C        0.24690    0.70930    0.81826    1.000
    C220     C        0.26620    0.66040    0.79741    1.000
    H189     H        0.26960    0.66740    0.76500    1.000
    H190     H        0.22940    0.61400    0.80300    1.000
    C221     C        0.12390    0.83060    0.88030    1.000
    H191     H        0.09290    0.78400    0.88260    1.000
    C222     C        0.09930    0.87710    0.88260    1.000
    H192     H        0.05280    0.86220    0.88540    1.000
    C223     C        0.14760    0.94530    0.88060    1.000
    H193     H        0.13410    0.97780    0.88430    1.000
    C224     C        0.21300    0.96600    0.87340    1.000
    H194     H        0.24470    0.01250    0.87050    1.000
    C225     C        0.23390    0.91760    0.87040    1.000
    C226     C        0.30430    0.93290    0.86610    1.000
    C227     C        0.36400    0.00270    0.86310    1.000
    H195     H        0.35750    0.04030    0.86280    1.000
    C228     C        0.42320    0.01170    0.86110    1.000
    H196     H        0.46000    0.05620    0.85900    1.000
    C229     C        0.43760    0.95150    0.86190    1.000
    H197     H        0.48140    0.95710    0.86160    1.000
    C230     C        0.37720    0.88740    0.86300    1.000
    H198     H        0.38150    0.84850    0.86180    1.000
    N31      N        0.19010    0.85120    0.87510    1.000
    N32      N        0.31540    0.87870    0.86570    1.000
    O61      O        0.20640    0.72350    0.79824    1.000
    O62      O        0.27200    0.73470    0.85677    1.000
    Cu17     Cu       0.85999    0.07430    0.05592    1.000
    Cu18     Cu       0.50820    0.11331    0.98285    1.000
    C231     C        0.73657    0.98823    0.01333    1.000
    C232     C        0.66427    0.92843    0.00713    1.000
    H199     H        0.66637    0.89223    0.99083    1.000
    H200     H        0.64457    0.91063    0.03663    1.000
    C233     C        0.61827    0.94803    0.98183    1.000
    H201     H        0.63967    0.96783    0.95283    1.000
    C234     C        0.60867    0.00153    0.00773    1.000
    H202     H        0.58197    0.98023    0.03463    1.000
    H203     H        0.65327    0.03793    0.01733    1.000
    C235     C        0.57367    0.03293    0.98113    1.000
    C236     C        0.54637    0.88533    0.97263    1.000
    H204     H        0.52587    0.86273    0.00093    1.000
    H205     H        0.51717    0.90083    0.95933    1.000
    C237     C        0.55057    0.83483    0.94113    1.000
    C238     C        0.91497    0.04113    0.98411    1.000
    C239     C        0.93157    0.99263    0.95842    1.000
    H206     H        0.93477    0.00283    0.92643    1.000
    H207     H        0.89507    0.94583    0.96273    1.000
    C240     C        0.60317    0.20413    0.04063    1.000
    C241     C        0.66737    0.26933    0.05463    1.000
    H208     H        0.70727    0.26903    0.04273    1.000
    H209     H        0.67077    0.27103    0.08733    1.000
    C242     C        0.76737    0.12813    0.08383    1.000
    H210     H        0.73167    0.08323    0.08123    1.000
    C243     C        0.75247    0.17883    0.09503    1.000
    H211     H        0.70737    0.16793    0.09993    1.000
    C244     C        0.80427    0.24453    0.09873    1.000
    H212     H        0.79487    0.27913    0.10613    1.000
    C245     C        0.87147    0.26003    0.09163    1.000
    H213     H        0.90757    0.30503    0.09343    1.000
    C246     C        0.88357    0.20653    0.08163    1.000
    C247     C        0.95307    0.21573    0.07633    1.000
    C248     C        0.01107    0.27533    0.08523    1.000
    H214     H        0.00937    0.31363    0.09523    1.000
    C249     C        0.07427    0.27743    0.07903    1.000
    H215     H        0.11517    0.31793    0.08423    1.000
    C250     C        0.07517    0.22013    0.06543    1.000
    H216     H        0.11637    0.22043    0.06213    1.000
    C251     C        0.01357    0.16183    0.05673    1.000
    H217     H        0.01377    0.12283    0.04673    1.000
    C252     C        0.38357    0.97203    0.98433    1.000
    H218     H        0.41367    0.95553    0.98813    1.000
    C253     C        0.31297    0.92523    0.98233    1.000
    H219     H        0.29627    0.87853    0.98583    1.000
    C254     C        0.26957    0.94983    0.97513    1.000
    H220     H        0.22277    0.91923    0.97233    1.000
    C255     C        0.29357    0.01903    0.97213    1.000
    H221     H        0.26387    0.03603    0.96823    1.000
    C256     C        0.36407    0.06243    0.97503    1.000
    C257     C        0.39617    0.13683    0.96923    1.000
    C258     C        0.36117    0.17183    0.96263    1.000
    H222     H        0.31347    0.14853    0.96363    1.000
    C259     C        0.39767    0.24253    0.95433    1.000
    H223     H        0.37467    0.26673    0.94963    1.000
    C260     C        0.46807    0.27533    0.95333    1.000
    H224     H        0.49387    0.32213    0.94763    1.000
    C261     C        0.50007    0.23653    0.96103    1.000
    H225     H        0.54767    0.25873    0.96063    1.000
    N33      N        0.83157    0.14153    0.07646    1.000
    N34      N        0.95357    0.15913    0.06212    1.000
    N35      N        0.40877    0.03973    0.98093    1.000
    N36      N        0.46537    0.16963    0.96863    1.000
    O63      O        0.76487    0.99773    0.05238    1.000
    O64      O        0.76577    0.02493    0.98113    1.000
    O65      O        0.53837    0.05073    0.00223    1.000
    O66      O        0.58297    0.04153    0.93963    1.000
    O67      O        0.54457    0.78023    0.95593    1.000
    O68      O        0.56097    0.85043    0.89903    1.000
    O69      O        0.89343    0.02123    0.02477    1.000
    O70      O        0.92387    0.09533    0.96733    1.000
    O71      O        0.59537    0.19343    0.99821    1.000
    O72      O        0.56107    0.16573    0.06918    1.000
    C262     C        0.33333    0.66667    0.81430    1.000
    H226     H        0.33333    0.66667    0.84740    1.000
    C263     C        0.00000    0.00000    0.97503    1.000
    H227     H        0.00000    0.00000    0.00813    1.000
    C264     C        0.66667    0.33333    0.03753    1.000
    H228     H        0.66667    0.33333    0.00443    1.000
    Cu19     Cu       0.87737    0.77420    0.20686    1.000
    C265     C        0.95737    0.87093    0.15159    1.000
    C266     C        0.00627    0.93913    0.13074    1.000
    H229     H        0.99927    0.93553    0.09833    1.000
    H230     H        0.05267    0.94873    0.13633    1.000
    C267     C        0.83607    0.62663    0.21363    1.000
    H231     H        0.88267    0.64223    0.21593    1.000
    C268     C        0.78957    0.55553    0.21593    1.000
    H232     H        0.80447    0.52393    0.21873    1.000
    C269     C        0.72137    0.53563    0.21393    1.000
    H233     H        0.68887    0.48963    0.21763    1.000
    C270     C        0.70067    0.58033    0.20673    1.000
    H234     H        0.65417    0.56553    0.20383    1.000
    C271     C        0.74907    0.64963    0.20373    1.000
    C272     C        0.73377    0.70473    0.19943    1.000
    C273     C        0.66397    0.69463    0.19643    1.000
    H235     H        0.62637    0.65053    0.19613    1.000
    C274     C        0.65497    0.74483    0.19443    1.000
    H236     H        0.61047    0.73713    0.19233    1.000
    C275     C        0.71517    0.81943    0.19523    1.000
    H237     H        0.70957    0.85763    0.19493    1.000
    C276     C        0.77927    0.82313    0.19633    1.000
    H238     H        0.81817    0.86633    0.19513    1.000
    N37      N        0.81547    0.67223    0.20843    1.000
    N38      N        0.78797    0.77003    0.19903    1.000
    O73      O        0.94317    0.81623    0.13157    1.000
    O74      O        0.93197    0.87063    0.19010    1.000
    Cu20     Cu       0.59236    0.11902    0.38926    1.000
    Cu21     Cu       0.55335    0.72822    0.31619    1.000
    C277     C        0.67843    0.08167    0.34667    1.000
    C278     C        0.73823    0.06917    0.34047    1.000
    H239     H        0.77443    0.10747    0.32417    1.000
    H240     H        0.75603    0.06727    0.36997    1.000
    C279     C        0.71863    0.00357    0.31517    1.000
    H241     H        0.69883    0.00517    0.28617    1.000
    C280     C        0.66513    0.94047    0.34107    1.000
    H242     H        0.68643    0.93507    0.36797    1.000
    H243     H        0.62873    0.94867    0.35067    1.000
    C281     C        0.63373    0.87407    0.31447    1.000
    C282     C        0.78133    0.99437    0.30597    1.000
    H244     H        0.80393    0.99647    0.33427    1.000
    H245     H        0.76583    0.94967    0.29267    1.000
    C283     C        0.83183    0.04907    0.27447    1.000
    C284     C        0.62553    0.20717    0.31745    1.000
    C285     C        0.67403    0.27227    0.29176    1.000
    H246     H        0.66383    0.26527    0.25977    1.000
    H247     H        0.72083    0.28257    0.29607    1.000
    C286     C        0.46253    0.73237    0.37397    1.000
    C287     C        0.39733    0.73137    0.38797    1.000
    H248     H        0.39763    0.77157    0.37607    1.000
    H249     H        0.39563    0.73307    0.42067    1.000
    C288     C        0.53853    0.97257    0.41717    1.000
    H250     H        0.58343    0.98177    0.41457    1.000
    C289     C        0.48783    0.90697    0.42837    1.000
    H251     H        0.49873    0.87277    0.43327    1.000
    C290     C        0.42213    0.89307    0.43207    1.000
    H252     H        0.38753    0.84907    0.43947    1.000
    C291     C        0.40663    0.94477    0.42497    1.000
    H253     H        0.36163    0.93587    0.42677    1.000
    C292     C        0.46013    0.01037    0.41497    1.000
    C293     C        0.45093    0.07067    0.40967    1.000
    C294     C        0.39133    0.06907    0.41857    1.000
    H254     H        0.35303    0.02907    0.42857    1.000
    C295     C        0.38923    0.13017    0.41237    1.000
    H255     H        0.34873    0.13057    0.41757    1.000
    C296     C        0.44653    0.18837    0.39877    1.000
    H256     H        0.44623    0.22927    0.39547    1.000
    C297     C        0.50483    0.18507    0.39007    1.000
    H257     H        0.54383    0.22427    0.38007    1.000
    C298     C        0.69463    0.74487    0.31767    1.000
    H258     H        0.71113    0.79147    0.32147    1.000
    C299     C        0.74143    0.72107    0.31567    1.000
    H259     H        0.78813    0.75107    0.31917    1.000
    C300     C        0.71683    0.65307    0.30847    1.000
    H260     H        0.74743    0.63687    0.30567    1.000
    C301     C        0.64763    0.60787    0.30547    1.000
    H261     H        0.63063    0.56117    0.30157    1.000
    C302     C        0.60423    0.63497    0.30837    1.000
    C303     C        0.52983    0.59267    0.30257    1.000
    C304     C        0.49483    0.52267    0.29597    1.000
    H262     H        0.51813    0.49827    0.29697    1.000
    C305     C        0.42413    0.48847    0.28767    1.000
    H263     H        0.39993    0.44127    0.28297    1.000
    C306     C        0.39133    0.52607    0.28667    1.000
    H264     H        0.34453    0.50507    0.28097    1.000
    C307     C        0.43013    0.59687    0.29437    1.000
    H265     H        0.40793    0.62227    0.29397    1.000
    N39      N        0.52513    0.02337    0.40980    1.000
    N40      N        0.50753    0.12777    0.39546    1.000
    N41      N        0.62693    0.70237    0.31427    1.000
    N42      N        0.49703    0.62907    0.30197    1.000
    O75      O        0.66893    0.10047    0.38572    1.000
    O76      O        0.64173    0.07417    0.31447    1.000
    O77      O        0.61593    0.82097    0.33557    1.000
    O78      O        0.62513    0.87477    0.27297    1.000
    O79      O        0.88643    0.09767    0.28927    1.000
    O80      O        0.81623    0.04387    0.23237    1.000
    O81      O        0.64543    0.20553    0.35811    1.000
    O82      O        0.57133    0.16187    0.30067    1.000
    O83      O        0.47323    0.73527    0.33155    1.000
    O84      O        0.50093    0.72867    0.40252    1.000
    Cu22     Cu       0.22580    0.10316    0.20686    1.000
    C308     C        0.12907    0.08643    0.15159    1.000
    C309     C        0.06087    0.06713    0.13074    1.000
    H266     H        0.06447    0.06373    0.09833    1.000
    H267     H        0.05127    0.10393    0.13633    1.000
    C310     C        0.37337    0.20943    0.21363    1.000
    H268     H        0.35777    0.24043    0.21593    1.000
    C311     C        0.44447    0.23403    0.21593    1.000
    H269     H        0.47607    0.28053    0.21873    1.000
    C312     C        0.46437    0.18573    0.21393    1.000
    H270     H        0.51037    0.19923    0.21763    1.000
    C313     C        0.41967    0.12033    0.20673    1.000
    H271     H        0.43447    0.08863    0.20383    1.000
    C314     C        0.35037    0.09943    0.20373    1.000
    C315     C        0.29527    0.02903    0.19943    1.000
    C316     C        0.30537    0.96933    0.19643    1.000
    H272     H        0.34947    0.97583    0.19613    1.000
    C317     C        0.25517    0.91013    0.19443    1.000
    H273     H        0.26287    0.87333    0.19233    1.000
    C318     C        0.18057    0.89573    0.19523    1.000
    H274     H        0.14237    0.85193    0.19493    1.000
    C319     C        0.17687    0.95613    0.19633    1.000
    H275     H        0.13367    0.95183    0.19513    1.000
    N43      N        0.32777    0.14323    0.20843    1.000
    N44      N        0.22997    0.01793    0.19903    1.000
    O85      O        0.18377    0.12693    0.13157    1.000
    O86      O        0.12937    0.06133    0.19010    1.000
    Cu23     Cu       0.88098    0.47335    0.38926    1.000
    Cu24     Cu       0.27178    0.82514    0.31619    1.000
    C320     C        0.91833    0.59677    0.34667    1.000
    C321     C        0.93083    0.66907    0.34047    1.000
    H276     H        0.89253    0.66697    0.32417    1.000
    H277     H        0.93273    0.68877    0.36997    1.000
    C322     C        0.99643    0.71507    0.31517    1.000
    H278     H        0.99483    0.69367    0.28617    1.000
    C323     C        0.05953    0.72467    0.34107    1.000
    H279     H        0.06493    0.75137    0.36797    1.000
    H280     H        0.05133    0.68007    0.35067    1.000
    C324     C        0.12593    0.75967    0.31447    1.000
    C325     C        0.00563    0.78697    0.30597    1.000
    H281     H        0.00353    0.80747    0.33427    1.000
    H282     H        0.05033    0.81617    0.29267    1.000
    C326     C        0.95093    0.78277    0.27447    1.000
    C327     C        0.79283    0.41837    0.31745    1.000
    C328     C        0.72773    0.40177    0.29176    1.000
    H283     H        0.73473    0.39857    0.25977    1.000
    H284     H        0.71743    0.43827    0.29607    1.000
    C329     C        0.26763    0.73017    0.37397    1.000
    C330     C        0.26863    0.66597    0.38797    1.000
    H285     H        0.22843    0.62607    0.37607    1.000
    H286     H        0.26693    0.66257    0.42067    1.000
    C331     C        0.02743    0.56597    0.41717    1.000
    H287     H        0.01823    0.60167    0.41457    1.000
    C332     C        0.09303    0.58087    0.42837    1.000
    H288     H        0.12723    0.62597    0.43327    1.000
    C333     C        0.10693    0.52907    0.43207    1.000
    H289     H        0.15093    0.53847    0.43947    1.000
    C334     C        0.05523    0.46187    0.42497    1.000
    H290     H        0.06413    0.42577    0.42677    1.000
    C335     C        0.98963    0.44977    0.41497    1.000
    C336     C        0.92933    0.38027    0.40967    1.000
    C337     C        0.93093    0.32227    0.41857    1.000
    H291     H        0.97093    0.32397    0.42857    1.000
    C338     C        0.86983    0.25907    0.41237    1.000
    H292     H        0.86943    0.21817    0.41757    1.000
    C339     C        0.81163    0.25817    0.39877    1.000
    H293     H        0.77073    0.21697    0.39547    1.000
    C340     C        0.81493    0.31977    0.39007    1.000
    H294     H        0.77573    0.31957    0.38007    1.000
    C341     C        0.25513    0.94977    0.31767    1.000
    H295     H        0.20853    0.91967    0.32147    1.000
    C342     C        0.27893    0.02037    0.31567    1.000
    H296     H        0.24893    0.03707    0.31917    1.000
    C343     C        0.34693    0.06377    0.30847    1.000
    H297     H        0.36313    0.11057    0.30567    1.000
    C344     C        0.39213    0.03977    0.30547    1.000
    H298     H        0.43883    0.06947    0.30157    1.000
    C345     C        0.36503    0.96927    0.30837    1.000
    C346     C        0.40733    0.93717    0.30257    1.000
    C347     C        0.47733    0.97217    0.29597    1.000
    H299     H        0.50173    0.01987    0.29697    1.000
    C348     C        0.51153    0.93567    0.28767    1.000
    H300     H        0.55873    0.95867    0.28297    1.000
    C349     C        0.47393    0.86527    0.28667    1.000
    H301     H        0.49493    0.83947    0.28097    1.000
    C350     C        0.40313    0.83327    0.29437    1.000
    H302     H        0.37773    0.78567    0.29397    1.000
    N45      N        0.97663    0.50177    0.40980    1.000
    N46      N        0.87223    0.37977    0.39546    1.000
    N47      N        0.29763    0.92457    0.31427    1.000
    N48      N        0.37093    0.86797    0.30197    1.000
    O87      O        0.89953    0.56847    0.38572    1.000
    O88      O        0.92583    0.56757    0.31447    1.000
    O89      O        0.17903    0.79497    0.33557    1.000
    O90      O        0.12523    0.75037    0.27297    1.000
    O91      O        0.90233    0.78877    0.28927    1.000
    O92      O        0.95613    0.77237    0.23237    1.000
    O93      O        0.79447    0.43991    0.35811    1.000
    O94      O        0.83813    0.40947    0.30067    1.000
    O95      O        0.26473    0.73797    0.33155    1.000
    O96      O        0.27133    0.77227    0.40252    1.000
    Cu25     Cu       0.89684    0.12263    0.20686    1.000
    C351     C        0.91357    0.04263    0.15159    1.000
    C352     C        0.93287    0.99373    0.13074    1.000
    H303     H        0.93627    0.00073    0.09833    1.000
    H304     H        0.89607    0.94733    0.13633    1.000
    C353     C        0.79057    0.16393    0.21363    1.000
    H305     H        0.75957    0.11733    0.21593    1.000
    C354     C        0.76597    0.21043    0.21593    1.000
    H306     H        0.71947    0.19553    0.21873    1.000
    C355     C        0.81427    0.27863    0.21393    1.000
    H307     H        0.80077    0.31113    0.21763    1.000
    C356     C        0.87967    0.29933    0.20673    1.000
    H308     H        0.91137    0.34583    0.20383    1.000
    C357     C        0.90057    0.25093    0.20373    1.000
    C358     C        0.97097    0.26623    0.19943    1.000
    C359     C        0.03067    0.33603    0.19643    1.000
    H309     H        0.02417    0.37363    0.19613    1.000
    C360     C        0.08987    0.34503    0.19443    1.000
    H310     H        0.12667    0.38953    0.19233    1.000
    C361     C        0.10427    0.28483    0.19523    1.000
    H311     H        0.14807    0.29043    0.19493    1.000
    C362     C        0.04387    0.22073    0.19633    1.000
    H312     H        0.04817    0.18183    0.19513    1.000
    N49      N        0.85677    0.18453    0.20843    1.000
    N50      N        0.98207    0.21203    0.19903    1.000
    O97      O        0.87307    0.05683    0.13157    1.000
    O98      O        0.93867    0.06803    0.19010    1.000
    Cu26     Cu       0.52665    0.40764    0.38926    1.000
    Cu27     Cu       0.17486    0.44665    0.31619    1.000
    C363     C        0.40323    0.32157    0.34667    1.000
    C364     C        0.33093    0.26177    0.34047    1.000
    H313     H        0.33303    0.22557    0.32417    1.000
    H314     H        0.31123    0.24397    0.36997    1.000
    C365     C        0.28493    0.28137    0.31517    1.000
    H315     H        0.30633    0.30117    0.28617    1.000
    C366     C        0.27533    0.33487    0.34107    1.000
    H316     H        0.24863    0.31357    0.36797    1.000
    H317     H        0.31993    0.37127    0.35067    1.000
    C367     C        0.24033    0.36627    0.31447    1.000
    C368     C        0.21303    0.21867    0.30597    1.000
    H318     H        0.19253    0.19607    0.33427    1.000
    H319     H        0.18383    0.23417    0.29267    1.000
    C369     C        0.21723    0.16817    0.27447    1.000
    C370     C        0.58163    0.37447    0.31745    1.000
    C371     C        0.59823    0.32597    0.29176    1.000
    H320     H        0.60143    0.33617    0.25977    1.000
    H321     H        0.56173    0.27917    0.29607    1.000
    C372     C        0.26983    0.53747    0.37397    1.000
    C373     C        0.33403    0.60267    0.38797    1.000
    H322     H        0.37393    0.60237    0.37607    1.000
    H323     H        0.33743    0.60437    0.42067    1.000
    C374     C        0.43403    0.46147    0.41717    1.000
    H324     H        0.39833    0.41657    0.41457    1.000
    C375     C        0.41913    0.51217    0.42837    1.000
    H325     H        0.37403    0.50127    0.43327    1.000
    C376     C        0.47093    0.57787    0.43207    1.000
    H326     H        0.46153    0.61247    0.43947    1.000
    C377     C        0.53813    0.59337    0.42497    1.000
    H327     H        0.57423    0.63837    0.42677    1.000
    C378     C        0.55023    0.53987    0.41497    1.000
    C379     C        0.61973    0.54907    0.40967    1.000
    C380     C        0.67773    0.60867    0.41857    1.000
    H328     H        0.67603    0.64697    0.42857    1.000
    C381     C        0.74093    0.61077    0.41237    1.000
    H329     H        0.78183    0.65127    0.41757    1.000
    C382     C        0.74183    0.55347    0.39877    1.000
    H330     H        0.78303    0.55377    0.39547    1.000
    C383     C        0.68023    0.49517    0.39007    1.000
    H331     H        0.68043    0.45617    0.38007    1.000
    C384     C        0.05023    0.30537    0.31767    1.000
    H332     H        0.08033    0.28887    0.32147    1.000
    C385     C        0.97963    0.25857    0.31567    1.000
    H333     H        0.96293    0.21187    0.31917    1.000
    C386     C        0.93623    0.28317    0.30847    1.000
    H334     H        0.88943    0.25257    0.30567    1.000
    C387     C        0.96023    0.35237    0.30547    1.000
    H335     H        0.93053    0.36937    0.30157    1.000
    C388     C        0.03073    0.39577    0.30837    1.000
    C389     C        0.06283    0.47017    0.30257    1.000
    C390     C        0.02783    0.50517    0.29597    1.000
    H336     H        0.98013    0.48187    0.29697    1.000
    C391     C        0.06433    0.57587    0.28767    1.000
    H337     H        0.04133    0.60007    0.28297    1.000
    C392     C        0.13473    0.60867    0.28667    1.000
    H338     H        0.16053    0.65547    0.28097    1.000
    C393     C        0.16673    0.56987    0.29437    1.000
    H339     H        0.21433    0.59207    0.29397    1.000
    N51      N        0.49823    0.47487    0.40980    1.000
    N52      N        0.62023    0.49247    0.39546    1.000
    N53      N        0.07543    0.37307    0.31427    1.000
    N54      N        0.13203    0.50297    0.30197    1.000
    O99      O        0.43153    0.33107    0.38572    1.000
    O100     O        0.43243    0.35827    0.31447    1.000
    O101     O        0.20503    0.38407    0.33557    1.000
    O102     O        0.24963    0.37487    0.27297    1.000
    O103     O        0.21123    0.11357    0.28927    1.000
    O104     O        0.22763    0.18377    0.23237    1.000
    O105     O        0.56009    0.35457    0.35811    1.000
    O106     O        0.59053    0.42867    0.30067    1.000
    O107     O        0.26203    0.52677    0.33155    1.000
    O108     O        0.22773    0.49907    0.40252    1.000
    C394     C        0.00000    0.00000    0.14763    1.000
    H340     H        0.00000    0.00000    0.18073    1.000
    C395     C        0.66667    0.33333    0.30837    1.000
    H341     H        0.66667    0.33333    0.34147    1.000
    C396     C        0.33333    0.66667    0.37087    1.000
    H342     H        0.33333    0.66667    0.33777    1.000
