# CIF file generated by openbabel 3.1.0, see https://openbabel.org
data_I
_chemical_name_common 'image0'
_cell_length_a 18.1741
_cell_length_b 11.3088
_cell_length_c 18.6005
_cell_angle_alpha 90
_cell_angle_beta 108.166
_cell_angle_gamma 90
_space_group_name_H-M_alt 'P 1'
_space_group_name_Hall 'P 1'
loop_
    _symmetry_equiv_pos_as_xyz
    x,y,z
loop_
    _atom_site_label
    _atom_site_type_symbol
    _atom_site_fract_x
    _atom_site_fract_y
    _atom_site_fract_z
    _atom_site_occupancy
    Tb1      Tb       0.50125    0.06493    0.39780    1.000
    O1       O        0.42190    0.06990    0.51480    1.000
    O2       O        0.58889    0.07120    0.22184    1.000
    O3       O        0.58744    0.02080    0.33671    1.000
    O4       O        0.92632    0.32620    0.49885    1.000
    O5       O        0.40420    0.18720    0.41691    1.000
    O6       O        0.92370    0.40050    0.38700    1.000
    C1       C        0.61820    0.07040    0.29190    1.000
    C2       C        0.79440    0.19790    0.43480    1.000
    H1       H        0.81590    0.20150    0.48710    1.000
    C3       C        0.31620    0.20460    0.48680    1.000
    C4       C        0.27550    0.29860    0.44310    1.000
    C5       C        0.21010    0.34150    0.45650    1.000
    H2       H        0.18290    0.40310    0.42670    1.000
    C6       C        0.72610    0.13810    0.40460    1.000
    H3       H        0.70090    0.10410    0.43590    1.000
    C7       C        0.89930    0.33150    0.42770    1.000
    C8       C        0.69500    0.12900    0.32590    1.000
    C9       C        0.73350    0.17730    0.28040    1.000
    H4       H        0.71390    0.16720    0.22830    1.000
    C10      C        0.38520    0.15110    0.47270    1.000
    N1       N        0.83560    0.29100    0.26060    1.000
    H5       H        0.87750    0.25310    0.26380    1.000
    H6       H        0.80420    0.28490    0.21530    1.000
    C11      C        0.83240    0.25300    0.39030    1.000
    C12      C        0.80250    0.24220    0.31140    1.000
    N2       N        0.29830    0.35580    0.38840    1.000
    H7       H        0.26850    0.33550    0.34380    1.000
    H8       H        0.29510    0.43180    0.39320    1.000
    Tb2      Tb       0.00125    0.56493    0.39780    1.000
    O7       O        0.92190    0.56990    0.51480    1.000
    O8       O        0.08889    0.57120    0.22184    1.000
    O9       O        0.08744    0.52080    0.33671    1.000
    O10      O        0.42632    0.82620    0.49885    1.000
    O11      O        0.90420    0.68720    0.41691    1.000
    O12      O        0.42370    0.90050    0.38700    1.000
    C13      C        0.11820    0.57040    0.29190    1.000
    C14      C        0.29440    0.69790    0.43480    1.000
    H9       H        0.31590    0.70150    0.48710    1.000
    C15      C        0.81620    0.70460    0.48680    1.000
    C16      C        0.77550    0.79860    0.44310    1.000
    C17      C        0.71010    0.84150    0.45650    1.000
    H10      H        0.68290    0.90310    0.42670    1.000
    C18      C        0.22610    0.63810    0.40460    1.000
    H11      H        0.20090    0.60410    0.43590    1.000
    C19      C        0.39930    0.83150    0.42770    1.000
    C20      C        0.19500    0.62900    0.32590    1.000
    C21      C        0.23350    0.67730    0.28040    1.000
    H12      H        0.21390    0.66720    0.22830    1.000
    C22      C        0.88520    0.65110    0.47270    1.000
    N3       N        0.33560    0.79100    0.26060    1.000
    H13      H        0.37750    0.75310    0.26380    1.000
    H14      H        0.30420    0.78490    0.21530    1.000
    C23      C        0.33240    0.75300    0.39030    1.000
    C24      C        0.30250    0.74220    0.31140    1.000
    N4       N        0.79830    0.85580    0.38840    1.000
    H15      H        0.76850    0.83550    0.34380    1.000
    H16      H        0.79510    0.93180    0.39320    1.000
    Tb3      Tb       0.49875    0.06493    0.10220    1.000
    O13      O        0.57810    0.06990    0.98520    1.000
    O14      O        0.41111    0.07120    0.27816    1.000
    O15      O        0.41256    0.02080    0.16329    1.000
    O16      O        0.07368    0.32620    0.00115    1.000
    O17      O        0.59580    0.18720    0.08309    1.000
    O18      O        0.07630    0.40050    0.11300    1.000
    C25      C        0.38180    0.07040    0.20810    1.000
    C26      C        0.20560    0.19790    0.06520    1.000
    H17      H        0.18410    0.20150    0.01290    1.000
    C27      C        0.68380    0.20460    0.01320    1.000
    C28      C        0.72450    0.29860    0.05690    1.000
    C29      C        0.78990    0.34150    0.04350    1.000
    H18      H        0.81710    0.40310    0.07330    1.000
    C30      C        0.27390    0.13810    0.09540    1.000
    H19      H        0.29910    0.10410    0.06410    1.000
    C31      C        0.10070    0.33150    0.07230    1.000
    C32      C        0.30500    0.12900    0.17410    1.000
    C33      C        0.26650    0.17730    0.21960    1.000
    H20      H        0.28610    0.16720    0.27170    1.000
    C34      C        0.61480    0.15110    0.02730    1.000
    N5       N        0.16440    0.29100    0.23940    1.000
    H21      H        0.12250    0.25310    0.23620    1.000
    H22      H        0.19580    0.28490    0.28470    1.000
    C35      C        0.16760    0.25300    0.10970    1.000
    C36      C        0.19750    0.24220    0.18860    1.000
    N6       N        0.70170    0.35580    0.11160    1.000
    H23      H        0.73150    0.33550    0.15620    1.000
    H24      H        0.70490    0.43180    0.10680    1.000
    Tb4      Tb       0.99875    0.56493    0.10220    1.000
    O19      O        0.07810    0.56990    0.98520    1.000
    O20      O        0.91111    0.57120    0.27816    1.000
    O21      O        0.91256    0.52080    0.16329    1.000
    O22      O        0.57368    0.82620    0.00115    1.000
    O23      O        0.09580    0.68720    0.08309    1.000
    O24      O        0.57630    0.90050    0.11300    1.000
    C37      C        0.88180    0.57040    0.20810    1.000
    C38      C        0.70560    0.69790    0.06520    1.000
    H25      H        0.68410    0.70150    0.01290    1.000
    C39      C        0.18380    0.70460    0.01320    1.000
    C40      C        0.22450    0.79860    0.05690    1.000
    C41      C        0.28990    0.84150    0.04350    1.000
    H26      H        0.31710    0.90310    0.07330    1.000
    C42      C        0.77390    0.63810    0.09540    1.000
    H27      H        0.79910    0.60410    0.06410    1.000
    C43      C        0.60070    0.83150    0.07230    1.000
    C44      C        0.80500    0.62900    0.17410    1.000
    C45      C        0.76650    0.67730    0.21960    1.000
    H28      H        0.78610    0.66720    0.27170    1.000
    C46      C        0.11480    0.65110    0.02730    1.000
    N7       N        0.66440    0.79100    0.23940    1.000
    H29      H        0.62250    0.75310    0.23620    1.000
    H30      H        0.69580    0.78490    0.28470    1.000
    C47      C        0.66760    0.75300    0.10970    1.000
    C48      C        0.69750    0.74220    0.18860    1.000
    N8       N        0.20170    0.85580    0.11160    1.000
    H31      H        0.23150    0.83550    0.15620    1.000
    H32      H        0.20490    0.93180    0.10680    1.000
    Tb5      Tb       0.49875    0.93507    0.60220    1.000
    O25      O        0.57810    0.93010    0.48520    1.000
    O26      O        0.41111    0.92880    0.77816    1.000
    O27      O        0.41256    0.97920    0.66329    1.000
    O28      O        0.07368    0.67380    0.50115    1.000
    O29      O        0.59580    0.81280    0.58309    1.000
    O30      O        0.07630    0.59950    0.61300    1.000
    C49      C        0.38180    0.92960    0.70810    1.000
    C50      C        0.20560    0.80210    0.56520    1.000
    H33      H        0.18410    0.79850    0.51290    1.000
    C51      C        0.68380    0.79540    0.51320    1.000
    C52      C        0.72450    0.70140    0.55690    1.000
    C53      C        0.78990    0.65850    0.54350    1.000
    H34      H        0.81710    0.59690    0.57330    1.000
    C54      C        0.27390    0.86190    0.59540    1.000
    H35      H        0.29910    0.89590    0.56410    1.000
    C55      C        0.10070    0.66850    0.57230    1.000
    C56      C        0.30500    0.87100    0.67410    1.000
    C57      C        0.26650    0.82270    0.71960    1.000
    H36      H        0.28610    0.83280    0.77170    1.000
    C58      C        0.61480    0.84890    0.52730    1.000
    N9       N        0.16440    0.70900    0.73940    1.000
    H37      H        0.12250    0.74690    0.73620    1.000
    H38      H        0.19580    0.71510    0.78470    1.000
    C59      C        0.16760    0.74700    0.60970    1.000
    C60      C        0.19750    0.75780    0.68860    1.000
    N10      N        0.70170    0.64420    0.61160    1.000
    H39      H        0.73150    0.66450    0.65620    1.000
    H40      H        0.70490    0.56820    0.60680    1.000
    Tb6      Tb       0.99875    0.43507    0.60220    1.000
    O31      O        0.07810    0.43010    0.48520    1.000
    O32      O        0.91111    0.42880    0.77816    1.000
    O33      O        0.91256    0.47920    0.66329    1.000
    O34      O        0.57368    0.17380    0.50115    1.000
    O35      O        0.09580    0.31280    0.58309    1.000
    O36      O        0.57630    0.09950    0.61300    1.000
    C61      C        0.88180    0.42960    0.70810    1.000
    C62      C        0.70560    0.30210    0.56520    1.000
    H41      H        0.68410    0.29850    0.51290    1.000
    C63      C        0.18380    0.29540    0.51320    1.000
    C64      C        0.22450    0.20140    0.55690    1.000
    C65      C        0.28990    0.15850    0.54350    1.000
    H42      H        0.31710    0.09690    0.57330    1.000
    C66      C        0.77390    0.36190    0.59540    1.000
    H43      H        0.79910    0.39590    0.56410    1.000
    C67      C        0.60070    0.16850    0.57230    1.000
    C68      C        0.80500    0.37100    0.67410    1.000
    C69      C        0.76650    0.32270    0.71960    1.000
    H44      H        0.78610    0.33280    0.77170    1.000
    C70      C        0.11480    0.34890    0.52730    1.000
    N11      N        0.66440    0.20900    0.73940    1.000
    H45      H        0.62250    0.24690    0.73620    1.000
    H46      H        0.69580    0.21510    0.78470    1.000
    C71      C        0.66760    0.24700    0.60970    1.000
    C72      C        0.69750    0.25780    0.68860    1.000
    N12      N        0.20170    0.14420    0.61160    1.000
    H47      H        0.23150    0.16450    0.65620    1.000
    H48      H        0.20490    0.06820    0.60680    1.000
    Tb7      Tb       0.50125    0.93507    0.89780    1.000
    O37      O        0.42190    0.93010    0.01480    1.000
    O38      O        0.58889    0.92880    0.72184    1.000
    O39      O        0.58744    0.97920    0.83671    1.000
    O40      O        0.92632    0.67380    0.99885    1.000
    O41      O        0.40420    0.81280    0.91691    1.000
    O42      O        0.92370    0.59950    0.88700    1.000
    C73      C        0.61820    0.92960    0.79190    1.000
    C74      C        0.79440    0.80210    0.93480    1.000
    H49      H        0.81590    0.79850    0.98710    1.000
    C75      C        0.31620    0.79540    0.98680    1.000
    C76      C        0.27550    0.70140    0.94310    1.000
    C77      C        0.21010    0.65850    0.95650    1.000
    H50      H        0.18290    0.59690    0.92670    1.000
    C78      C        0.72610    0.86190    0.90460    1.000
    H51      H        0.70090    0.89590    0.93590    1.000
    C79      C        0.89930    0.66850    0.92770    1.000
    C80      C        0.69500    0.87100    0.82590    1.000
    C81      C        0.73350    0.82270    0.78040    1.000
    H52      H        0.71390    0.83280    0.72830    1.000
    C82      C        0.38520    0.84890    0.97270    1.000
    N13      N        0.83560    0.70900    0.76060    1.000
    H53      H        0.87750    0.74690    0.76380    1.000
    H54      H        0.80420    0.71510    0.71530    1.000
    C83      C        0.83240    0.74700    0.89030    1.000
    C84      C        0.80250    0.75780    0.81140    1.000
    N14      N        0.29830    0.64420    0.88840    1.000
    H55      H        0.26850    0.66450    0.84380    1.000
    H56      H        0.29510    0.56820    0.89320    1.000
    Tb8      Tb       0.00125    0.43507    0.89780    1.000
    O43      O        0.92190    0.43010    0.01480    1.000
    O44      O        0.08889    0.42880    0.72184    1.000
    O45      O        0.08744    0.47920    0.83671    1.000
    O46      O        0.42632    0.17380    0.99885    1.000
    O47      O        0.90420    0.31280    0.91691    1.000
    O48      O        0.42370    0.09950    0.88700    1.000
    C85      C        0.11820    0.42960    0.79190    1.000
    C86      C        0.29440    0.30210    0.93480    1.000
    H57      H        0.31590    0.29850    0.98710    1.000
    C87      C        0.81620    0.29540    0.98680    1.000
    C88      C        0.77550    0.20140    0.94310    1.000
    C89      C        0.71010    0.15850    0.95650    1.000
    H58      H        0.68290    0.09690    0.92670    1.000
    C90      C        0.22610    0.36190    0.90460    1.000
    H59      H        0.20090    0.39590    0.93590    1.000
    C91      C        0.39930    0.16850    0.92770    1.000
    C92      C        0.19500    0.37100    0.82590    1.000
    C93      C        0.23350    0.32270    0.78040    1.000
    H60      H        0.21390    0.33280    0.72830    1.000
    C94      C        0.88520    0.34890    0.97270    1.000
    N15      N        0.33560    0.20900    0.76060    1.000
    H61      H        0.37750    0.24690    0.76380    1.000
    H62      H        0.30420    0.21510    0.71530    1.000
    C95      C        0.33240    0.24700    0.89030    1.000
    C96      C        0.30250    0.25780    0.81140    1.000
    N16      N        0.79830    0.14420    0.88840    1.000
    H63      H        0.76850    0.16450    0.84380    1.000
    H64      H        0.79510    0.06820    0.89320    1.000
