# CIF file generated by openbabel 3.1.0, see https://openbabel.org
data_I
_chemical_name_common 'image0'
_cell_length_a 12.796
_cell_length_b 25.625
_cell_length_c 16.112
_cell_angle_alpha 90
_cell_angle_beta 119.955
_cell_angle_gamma 90
_space_group_name_H-M_alt 'P 1'
_space_group_name_Hall 'P 1'
loop_
    _symmetry_equiv_pos_as_xyz
    x,y,z
loop_
    _atom_site_label
    _atom_site_type_symbol
    _atom_site_fract_x
    _atom_site_fract_y
    _atom_site_fract_z
    _atom_site_occupancy
    Cu1      Cu       0.43990    0.25592    0.20590    1.000
    N1       N        0.08490    0.05410    0.46360    1.000
    N2       N        0.38300    0.21430    0.28490    1.000
    N3       N        0.50270    0.20120    0.63350    1.000
    N4       N        0.89000    0.05650    0.51900    1.000
    N5       N        0.61980    0.25800    0.80510    1.000
    N6       N        0.25700    0.26590    0.10550    1.000
    C1       C        0.21000    0.05600    0.50960    1.000
    H1       H        0.25400    0.03570    0.56390    1.000
    C2       C        0.26900    0.08640    0.47800    1.000
    H2       H        0.35320    0.08630    0.51060    1.000
    C3       C        0.20600    0.11760    0.39870    1.000
    C4       C        0.08300    0.11780    0.35000    1.000
    H3       H        0.03790    0.13880    0.29690    1.000
    C5       C        0.02700    0.08400    0.38600    1.000
    H4       H        0.94330    0.08270    0.35350    1.000
    C6       C        0.40100    0.16270    0.29510    1.000
    H5       H        0.44970    0.14750    0.27360    1.000
    C7       C        0.35200    0.13060    0.33580    1.000
    H6       H        0.37190    0.09540    0.34610    1.000
    C8       C        0.27200    0.15240    0.36090    1.000
    C9       C        0.24800    0.20420    0.34800    1.000
    H7       H        0.19610    0.21970    0.36560    1.000
    C10      C        0.30500    0.23360    0.30870    1.000
    H8       H        0.28650    0.26890    0.29820    1.000
    C11      C        0.54200    0.15300    0.66600    1.000
    H9       H        0.51890    0.13850    0.70680    1.000
    C12      C        0.61400    0.12280    0.64300    1.000
    H10      H        0.63880    0.08970    0.66910    1.000
    C13      C        0.64600    0.14350    0.58000    1.000
    C14      C        0.59900    0.19110    0.54100    1.000
    H11      H        0.61420    0.20480    0.49440    1.000
    C15      C        0.53100    0.21850    0.56800    1.000
    H12      H        0.50170    0.25100    0.54030    1.000
    C16      C        0.90300    0.05860    0.60400    1.000
    H13      H        0.96660    0.04000    0.65250    1.000
    C17      C        0.82900    0.08650    0.62900    1.000
    H14      H        0.84340    0.08670    0.69170    1.000
    C18      C        0.73100    0.11440    0.55510    1.000
    C19      C        0.71900    0.11130    0.46700    1.000
    H15      H        0.65610    0.12900    0.41600    1.000
    C20      C        0.80000    0.08140    0.45100    1.000
    H16      H        0.78840    0.07960    0.38960    1.000
    C21      C        0.68100    0.23610    0.89100    1.000
    H17      H        0.63430    0.21880    0.91190    1.000
    C22      C        0.80400    0.23570    0.95300    1.000
    H18      H        0.84000    0.21470    0.00740    1.000
    C23      C        0.87000    0.26800    0.93000    1.000
    C24      C        0.81200    0.29500    0.84300    1.000
    H19      H        0.85600    0.31610    0.82460    1.000
    C25      C        0.68700    0.29040    0.78300    1.000
    H20      H        0.64870    0.30990    0.72710    1.000
    C26      C        0.19500    0.30900    0.09900    1.000
    H21      H        0.23700    0.33850    0.13300    1.000
    C27      C        0.07000    0.31150    0.04400    1.000
    H22      H        0.03000    0.34190    0.04280    1.000
    C28      C        0.00800    0.26900    0.99200    1.000
    C29      C        0.06700    0.22510    0.99300    1.000
    H23      H        0.03000    0.19740    0.95150    1.000
    C30      C        0.19200    0.22490    0.06300    1.000
    H24      H        0.23040    0.19260    0.08050    1.000
    Cu2      Cu       0.56010    0.75592    0.29410    1.000
    N7       N        0.91510    0.55410    0.03640    1.000
    N8       N        0.61700    0.71430    0.21510    1.000
    N9       N        0.49730    0.70120    0.86650    1.000
    N10      N        0.11000    0.55650    0.98100    1.000
    N11      N        0.38020    0.75800    0.69490    1.000
    N12      N        0.74300    0.76590    0.39450    1.000
    C31      C        0.79000    0.55600    0.99040    1.000
    H25      H        0.74600    0.53570    0.93610    1.000
    C32      C        0.73100    0.58640    0.02200    1.000
    H26      H        0.64680    0.58630    0.98940    1.000
    C33      C        0.79400    0.61760    0.10130    1.000
    C34      C        0.91700    0.61780    0.15000    1.000
    H27      H        0.96210    0.63880    0.20310    1.000
    C35      C        0.97300    0.58400    0.11400    1.000
    H28      H        0.05670    0.58270    0.14650    1.000
    C36      C        0.59900    0.66270    0.20490    1.000
    H29      H        0.55030    0.64750    0.22640    1.000
    C37      C        0.64800    0.63060    0.16420    1.000
    H30      H        0.62810    0.59540    0.15390    1.000
    C38      C        0.72800    0.65240    0.13910    1.000
    C39      C        0.75200    0.70420    0.15200    1.000
    H31      H        0.80390    0.71970    0.13440    1.000
    C40      C        0.69500    0.73360    0.19130    1.000
    H32      H        0.71350    0.76890    0.20180    1.000
    C41      C        0.45800    0.65300    0.83400    1.000
    H33      H        0.48110    0.63850    0.79320    1.000
    C42      C        0.38600    0.62280    0.85700    1.000
    H34      H        0.36120    0.58970    0.83090    1.000
    C43      C        0.35400    0.64350    0.92000    1.000
    C44      C        0.40100    0.69110    0.95900    1.000
    H35      H        0.38580    0.70480    0.00560    1.000
    C45      C        0.46900    0.71850    0.93200    1.000
    H36      H        0.49830    0.75100    0.95970    1.000
    C46      C        0.09700    0.55860    0.89600    1.000
    H37      H        0.03340    0.54000    0.84750    1.000
    C47      C        0.17100    0.58650    0.87100    1.000
    H38      H        0.15660    0.58670    0.80830    1.000
    C48      C        0.26900    0.61440    0.94490    1.000
    C49      C        0.28100    0.61130    0.03300    1.000
    H39      H        0.34390    0.62900    0.08400    1.000
    C50      C        0.20000    0.58140    0.04900    1.000
    H40      H        0.21160    0.57960    0.11040    1.000
    C51      C        0.31900    0.73610    0.60900    1.000
    H41      H        0.36570    0.71880    0.58810    1.000
    C52      C        0.19600    0.73570    0.54700    1.000
    H42      H        0.16000    0.71470    0.49260    1.000
    C53      C        0.13000    0.76800    0.57000    1.000
    C54      C        0.18800    0.79500    0.65700    1.000
    H43      H        0.14400    0.81610    0.67540    1.000
    C55      C        0.31300    0.79040    0.71700    1.000
    H44      H        0.35130    0.80990    0.77290    1.000
    C56      C        0.80500    0.80900    0.40100    1.000
    H45      H        0.76300    0.83850    0.36700    1.000
    C57      C        0.93000    0.81150    0.45600    1.000
    H46      H        0.97000    0.84190    0.45720    1.000
    C58      C        0.99200    0.76900    0.50800    1.000
    C59      C        0.93300    0.72510    0.50700    1.000
    H47      H        0.97000    0.69740    0.54850    1.000
    C60      C        0.80800    0.72490    0.43700    1.000
    H48      H        0.76960    0.69260    0.41950    1.000
    Cu3      Cu       0.56010    0.74408    0.79410    1.000
    N13      N        0.91510    0.94590    0.53640    1.000
    N14      N        0.61700    0.78570    0.71510    1.000
    N15      N        0.49730    0.79880    0.36650    1.000
    N16      N        0.11000    0.94350    0.48100    1.000
    N17      N        0.38020    0.74200    0.19490    1.000
    N18      N        0.74300    0.73410    0.89450    1.000
    C61      C        0.79000    0.94400    0.49040    1.000
    H49      H        0.74600    0.96430    0.43610    1.000
    C62      C        0.73100    0.91360    0.52200    1.000
    H50      H        0.64680    0.91370    0.48940    1.000
    C63      C        0.79400    0.88240    0.60130    1.000
    C64      C        0.91700    0.88220    0.65000    1.000
    H51      H        0.96210    0.86120    0.70310    1.000
    C65      C        0.97300    0.91600    0.61400    1.000
    H52      H        0.05670    0.91730    0.64650    1.000
    C66      C        0.59900    0.83730    0.70490    1.000
    H53      H        0.55030    0.85250    0.72640    1.000
    C67      C        0.64800    0.86940    0.66420    1.000
    H54      H        0.62810    0.90460    0.65390    1.000
    C68      C        0.72800    0.84760    0.63910    1.000
    C69      C        0.75200    0.79580    0.65200    1.000
    H55      H        0.80390    0.78030    0.63440    1.000
    C70      C        0.69500    0.76640    0.69130    1.000
    H56      H        0.71350    0.73110    0.70180    1.000
    C71      C        0.45800    0.84700    0.33400    1.000
    H57      H        0.48110    0.86150    0.29320    1.000
    C72      C        0.38600    0.87720    0.35700    1.000
    H58      H        0.36120    0.91030    0.33090    1.000
    C73      C        0.35400    0.85650    0.42000    1.000
    C74      C        0.40100    0.80890    0.45900    1.000
    H59      H        0.38580    0.79520    0.50560    1.000
    C75      C        0.46900    0.78150    0.43200    1.000
    H60      H        0.49830    0.74900    0.45970    1.000
    C76      C        0.09700    0.94140    0.39600    1.000
    H61      H        0.03340    0.96000    0.34750    1.000
    C77      C        0.17100    0.91350    0.37100    1.000
    H62      H        0.15660    0.91330    0.30830    1.000
    C78      C        0.26900    0.88560    0.44490    1.000
    C79      C        0.28100    0.88870    0.53300    1.000
    H63      H        0.34390    0.87100    0.58400    1.000
    C80      C        0.20000    0.91860    0.54900    1.000
    H64      H        0.21160    0.92040    0.61040    1.000
    C81      C        0.31900    0.76390    0.10900    1.000
    H65      H        0.36570    0.78120    0.08810    1.000
    C82      C        0.19600    0.76430    0.04700    1.000
    H66      H        0.16000    0.78530    0.99260    1.000
    C83      C        0.13000    0.73200    0.07000    1.000
    C84      C        0.18800    0.70500    0.15700    1.000
    H67      H        0.14400    0.68390    0.17540    1.000
    C85      C        0.31300    0.70960    0.21700    1.000
    H68      H        0.35130    0.69010    0.27290    1.000
    C86      C        0.80500    0.69100    0.90100    1.000
    H69      H        0.76300    0.66150    0.86700    1.000
    C87      C        0.93000    0.68850    0.95600    1.000
    H70      H        0.97000    0.65810    0.95720    1.000
    C88      C        0.99200    0.73100    0.00800    1.000
    C89      C        0.93300    0.77490    0.00700    1.000
    H71      H        0.97000    0.80260    0.04850    1.000
    C90      C        0.80800    0.77510    0.93700    1.000
    H72      H        0.76960    0.80740    0.91950    1.000
    Cu4      Cu       0.43990    0.24408    0.70590    1.000
    N19      N        0.08490    0.44590    0.96360    1.000
    N20      N        0.38300    0.28570    0.78490    1.000
    N21      N        0.50270    0.29880    0.13350    1.000
    N22      N        0.89000    0.44350    0.01900    1.000
    N23      N        0.61980    0.24200    0.30510    1.000
    N24      N        0.25700    0.23410    0.60550    1.000
    C91      C        0.21000    0.44400    0.00960    1.000
    H73      H        0.25400    0.46430    0.06390    1.000
    C92      C        0.26900    0.41360    0.97800    1.000
    H74      H        0.35320    0.41370    0.01060    1.000
    C93      C        0.20600    0.38240    0.89870    1.000
    C94      C        0.08300    0.38220    0.85000    1.000
    H75      H        0.03790    0.36120    0.79690    1.000
    C95      C        0.02700    0.41600    0.88600    1.000
    H76      H        0.94330    0.41730    0.85350    1.000
    C96      C        0.40100    0.33730    0.79510    1.000
    H77      H        0.44970    0.35250    0.77360    1.000
    C97      C        0.35200    0.36940    0.83580    1.000
    H78      H        0.37190    0.40460    0.84610    1.000
    C98      C        0.27200    0.34760    0.86090    1.000
    C99      C        0.24800    0.29580    0.84800    1.000
    H79      H        0.19610    0.28030    0.86560    1.000
    C100     C        0.30500    0.26640    0.80870    1.000
    H80      H        0.28650    0.23110    0.79820    1.000
    C101     C        0.54200    0.34700    0.16600    1.000
    H81      H        0.51890    0.36150    0.20680    1.000
    C102     C        0.61400    0.37720    0.14300    1.000
    H82      H        0.63880    0.41030    0.16910    1.000
    C103     C        0.64600    0.35650    0.08000    1.000
    C104     C        0.59900    0.30890    0.04100    1.000
    H83      H        0.61420    0.29520    0.99440    1.000
    C105     C        0.53100    0.28150    0.06800    1.000
    H84      H        0.50170    0.24900    0.04030    1.000
    C106     C        0.90300    0.44140    0.10400    1.000
    H85      H        0.96660    0.46000    0.15250    1.000
    C107     C        0.82900    0.41350    0.12900    1.000
    H86      H        0.84340    0.41330    0.19170    1.000
    C108     C        0.73100    0.38560    0.05510    1.000
    C109     C        0.71900    0.38870    0.96700    1.000
    H87      H        0.65610    0.37100    0.91600    1.000
    C110     C        0.80000    0.41860    0.95100    1.000
    H88      H        0.78840    0.42040    0.88960    1.000
    C111     C        0.68100    0.26390    0.39100    1.000
    H89      H        0.63430    0.28120    0.41190    1.000
    C112     C        0.80400    0.26430    0.45300    1.000
    H90      H        0.84000    0.28530    0.50740    1.000
    C113     C        0.87000    0.23200    0.43000    1.000
    C114     C        0.81200    0.20500    0.34300    1.000
    H91      H        0.85600    0.18390    0.32460    1.000
    C115     C        0.68700    0.20960    0.28300    1.000
    H92      H        0.64870    0.19010    0.22710    1.000
    C116     C        0.19500    0.19100    0.59900    1.000
    H93      H        0.23700    0.16150    0.63300    1.000
    C117     C        0.07000    0.18850    0.54400    1.000
    H94      H        0.03000    0.15810    0.54280    1.000
    C118     C        0.00800    0.23100    0.49200    1.000
    C119     C        0.06700    0.27490    0.49300    1.000
    H95      H        0.03000    0.30260    0.45150    1.000
    C120     C        0.19200    0.27510    0.56300    1.000
    H96      H        0.23040    0.30740    0.58050    1.000
    Cu5      Cu       0.00000    0.00000    0.50000    1.000
    Cu6      Cu       0.00000    0.50000    0.00000    1.000
