# CIF file generated by openbabel 3.1.0, see https://openbabel.org
data_I
_chemical_name_common 'image0'
_cell_length_a 12.254
_cell_length_b 20.62
_cell_length_c 7.804
_cell_angle_alpha 90
_cell_angle_beta 90
_cell_angle_gamma 90
_space_group_name_H-M_alt 'P 1'
_space_group_name_Hall 'P 1'
loop_
    _symmetry_equiv_pos_as_xyz
    x,y,z
loop_
    _atom_site_label
    _atom_site_type_symbol
    _atom_site_fract_x
    _atom_site_fract_y
    _atom_site_fract_z
    _atom_site_occupancy
    N1       N        0.28840    0.20770    0.21740    1.000
    N2       N        0.03710    0.15480    0.22600    1.000
    C1       C        0.33350    0.23260    0.32790    1.000
    C2       C        0.98730    0.18020    0.33350    1.000
    C3       C        0.23100    0.35620    0.03600    1.000
    C4       C        0.33000    0.03800    0.04180    1.000
    H1       H        0.02601    0.27267    0.11262    1.000
    H2       H        0.07016    0.36071    0.09038    1.000
    H3       H        0.10370    0.35227    0.87253    1.000
    H4       H        0.17072    0.33848    0.11262    1.000
    H5       H        0.28530    0.32698    0.96038    1.000
    H6       H        0.24064    0.34753    0.17011    1.000
    H7       H        0.20692    0.45224    0.09184    1.000
    H8       H        0.22282    0.43400    0.87423    1.000
    H9       H        0.39617    0.43836    0.11262    1.000
    H10      H        0.07822    0.03594    0.11262    1.000
    H11      H        0.26453    0.06351    0.11262    1.000
    H12      H        0.18103    0.04975    0.11262    1.000
    N3       N        0.71160    0.79230    0.21740    1.000
    N4       N        0.96290    0.84520    0.22600    1.000
    C5       C        0.66650    0.76740    0.32790    1.000
    C6       C        0.01270    0.81980    0.33350    1.000
    C7       C        0.76900    0.64380    0.03600    1.000
    C8       C        0.67000    0.96200    0.04180    1.000
    H13      H        0.97399    0.72733    0.11262    1.000
    H14      H        0.92984    0.63929    0.09038    1.000
    H15      H        0.89630    0.64773    0.87253    1.000
    H16      H        0.82928    0.66152    0.11262    1.000
    H17      H        0.71470    0.67302    0.96038    1.000
    H18      H        0.75936    0.65247    0.17011    1.000
    H19      H        0.79308    0.54776    0.09184    1.000
    H20      H        0.77718    0.56600    0.87423    1.000
    H21      H        0.60383    0.56164    0.11262    1.000
    H22      H        0.92178    0.96406    0.11262    1.000
    H23      H        0.73547    0.93649    0.11262    1.000
    H24      H        0.81897    0.95025    0.11262    1.000
    N5       N        0.21160    0.70770    0.78260    1.000
    N6       N        0.46290    0.65480    0.77400    1.000
    C9       C        0.16650    0.73260    0.67210    1.000
    C10      C        0.51270    0.68020    0.66650    1.000
    C11      C        0.26900    0.85620    0.96400    1.000
    C12      C        0.17000    0.53800    0.95820    1.000
    H25      H        0.47399    0.77267    0.88738    1.000
    H26      H        0.42984    0.86071    0.90962    1.000
    H27      H        0.39630    0.85227    0.12747    1.000
    H28      H        0.32928    0.83848    0.88738    1.000
    H29      H        0.21470    0.82698    0.03962    1.000
    H30      H        0.25936    0.84753    0.82989    1.000
    H31      H        0.29308    0.95224    0.90816    1.000
    H32      H        0.27718    0.93400    0.12577    1.000
    H33      H        0.10383    0.93836    0.88738    1.000
    H34      H        0.42178    0.53594    0.88738    1.000
    H35      H        0.23547    0.56351    0.88738    1.000
    H36      H        0.31897    0.54975    0.88738    1.000
    N7       N        0.78840    0.29230    0.78260    1.000
    N8       N        0.53710    0.34520    0.77400    1.000
    C13      C        0.83350    0.26740    0.67210    1.000
    C14      C        0.48730    0.31980    0.66650    1.000
    C15      C        0.73100    0.14380    0.96400    1.000
    C16      C        0.83000    0.46200    0.95820    1.000
    H37      H        0.52601    0.22733    0.88738    1.000
    H38      H        0.57016    0.13929    0.90962    1.000
    H39      H        0.60370    0.14773    0.12747    1.000
    H40      H        0.67072    0.16152    0.88738    1.000
    H41      H        0.78530    0.17302    0.03962    1.000
    H42      H        0.74064    0.15247    0.82989    1.000
    H43      H        0.70692    0.04776    0.90816    1.000
    H44      H        0.72282    0.06600    0.12577    1.000
    H45      H        0.89617    0.06164    0.88738    1.000
    H46      H        0.57822    0.46406    0.88738    1.000
    H47      H        0.76453    0.43649    0.88738    1.000
    H48      H        0.68103    0.45025    0.88738    1.000
    N9       N        0.71160    0.79230    0.78260    1.000
    N10      N        0.96290    0.84520    0.77400    1.000
    C17      C        0.66650    0.76740    0.67210    1.000
    C18      C        0.01270    0.81980    0.66650    1.000
    C19      C        0.76900    0.64380    0.96400    1.000
    C20      C        0.67000    0.96200    0.95820    1.000
    H49      H        0.97399    0.72733    0.88738    1.000
    H50      H        0.92984    0.63929    0.90962    1.000
    H51      H        0.89630    0.64773    0.12747    1.000
    H52      H        0.82928    0.66152    0.88738    1.000
    H53      H        0.71470    0.67302    0.03962    1.000
    H54      H        0.75936    0.65247    0.82989    1.000
    H55      H        0.79308    0.54776    0.90816    1.000
    H56      H        0.77718    0.56600    0.12577    1.000
    H57      H        0.60383    0.56164    0.88738    1.000
    H58      H        0.92178    0.96406    0.88738    1.000
    H59      H        0.73547    0.93649    0.88738    1.000
    H60      H        0.81897    0.95025    0.88738    1.000
    N11      N        0.28840    0.20770    0.78260    1.000
    N12      N        0.03710    0.15480    0.77400    1.000
    C21      C        0.33350    0.23260    0.67210    1.000
    C22      C        0.98730    0.18020    0.66650    1.000
    C23      C        0.23100    0.35620    0.96400    1.000
    C24      C        0.33000    0.03800    0.95820    1.000
    H61      H        0.02601    0.27267    0.88738    1.000
    H62      H        0.07016    0.36071    0.90962    1.000
    H63      H        0.10370    0.35227    0.12747    1.000
    H64      H        0.17072    0.33848    0.88738    1.000
    H65      H        0.28530    0.32698    0.03962    1.000
    H66      H        0.24064    0.34753    0.82989    1.000
    H67      H        0.20692    0.45224    0.90816    1.000
    H68      H        0.22282    0.43400    0.12577    1.000
    H69      H        0.39617    0.43836    0.88738    1.000
    H70      H        0.07822    0.03594    0.88738    1.000
    H71      H        0.26453    0.06351    0.88738    1.000
    H72      H        0.18103    0.04975    0.88738    1.000
    N13      N        0.78840    0.29230    0.21740    1.000
    N14      N        0.53710    0.34520    0.22600    1.000
    C25      C        0.83350    0.26740    0.32790    1.000
    C26      C        0.48730    0.31980    0.33350    1.000
    C27      C        0.73100    0.14380    0.03600    1.000
    C28      C        0.83000    0.46200    0.04180    1.000
    H73      H        0.52601    0.22733    0.11262    1.000
    H74      H        0.57016    0.13929    0.09038    1.000
    H75      H        0.60370    0.14773    0.87253    1.000
    H76      H        0.67072    0.16152    0.11262    1.000
    H77      H        0.78530    0.17302    0.96038    1.000
    H78      H        0.74064    0.15247    0.17011    1.000
    H79      H        0.70692    0.04776    0.09184    1.000
    H80      H        0.72282    0.06600    0.87423    1.000
    H81      H        0.89617    0.06164    0.11262    1.000
    H82      H        0.57822    0.46406    0.11262    1.000
    H83      H        0.76453    0.43649    0.11262    1.000
    H84      H        0.68103    0.45025    0.11262    1.000
    N15      N        0.21160    0.70770    0.21740    1.000
    N16      N        0.46290    0.65480    0.22600    1.000
    C29      C        0.16650    0.73260    0.32790    1.000
    C30      C        0.51270    0.68020    0.33350    1.000
    C31      C        0.26900    0.85620    0.03600    1.000
    C32      C        0.17000    0.53800    0.04180    1.000
    H85      H        0.47399    0.77267    0.11262    1.000
    H86      H        0.42984    0.86071    0.09038    1.000
    H87      H        0.39630    0.85227    0.87253    1.000
    H88      H        0.32928    0.83848    0.11262    1.000
    H89      H        0.21470    0.82698    0.96038    1.000
    H90      H        0.25936    0.84753    0.17011    1.000
    H91      H        0.29308    0.95224    0.09184    1.000
    H92      H        0.27718    0.93400    0.87423    1.000
    H93      H        0.10383    0.93836    0.11262    1.000
    H94      H        0.42178    0.53594    0.11262    1.000
    H95      H        0.23547    0.56351    0.11262    1.000
    H96      H        0.31897    0.54975    0.11262    1.000
    Cd1      Cd       0.16768    0.17723    0.00000    1.000
    N17      N        0.07730    0.27440    0.00000    1.000
    N18      N        0.21570    0.07230    0.00000    1.000
    C33      C        0.11920    0.33440    0.00000    1.000
    C34      C        0.25500    0.42600    0.00000    1.000
    C35      C        0.35500    0.45610    0.00000    1.000
    C36      C        0.12600    0.02560    0.00000    1.000
    C37      C        0.04000    0.39400    0.00000    1.000
    C38      C        0.14500    0.47200    0.00000    1.000
    C39      C        0.33100    0.06100    0.00000    1.000
    Cd2      Cd       0.83232    0.82277    0.00000    1.000
    N19      N        0.92270    0.72560    0.00000    1.000
    N20      N        0.78430    0.92770    0.00000    1.000
    C40      C        0.88080    0.66560    0.00000    1.000
    C41      C        0.74500    0.57400    0.00000    1.000
    C42      C        0.64500    0.54390    0.00000    1.000
    C43      C        0.87400    0.97440    0.00000    1.000
    C44      C        0.96000    0.60600    0.00000    1.000
    C45      C        0.85500    0.52800    0.00000    1.000
    C46      C        0.66900    0.93900    0.00000    1.000
    Cd3      Cd       0.33232    0.67723    0.00000    1.000
    N21      N        0.42270    0.77440    0.00000    1.000
    N22      N        0.28430    0.57230    0.00000    1.000
    C47      C        0.38080    0.83440    0.00000    1.000
    C48      C        0.24500    0.92600    0.00000    1.000
    C49      C        0.14500    0.95610    0.00000    1.000
    C50      C        0.37400    0.52560    0.00000    1.000
    C51      C        0.46000    0.89400    0.00000    1.000
    C52      C        0.35500    0.97200    0.00000    1.000
    C53      C        0.16900    0.56100    0.00000    1.000
    Cd4      Cd       0.66768    0.32277    0.00000    1.000
    N23      N        0.57730    0.22560    0.00000    1.000
    N24      N        0.71570    0.42770    0.00000    1.000
    C54      C        0.61920    0.16560    0.00000    1.000
    C55      C        0.75500    0.07400    0.00000    1.000
    C56      C        0.85500    0.04390    0.00000    1.000
    C57      C        0.62600    0.47440    0.00000    1.000
    C58      C        0.54000    0.10600    0.00000    1.000
    C59      C        0.64500    0.02800    0.00000    1.000
    C60      C        0.83100    0.43900    0.00000    1.000
    Ni1      Ni       0.40868    0.27655    0.50000    1.000
    Ni2      Ni       0.59132    0.72345    0.50000    1.000
    Ni3      Ni       0.09132    0.77655    0.50000    1.000
    Ni4      Ni       0.90868    0.22345    0.50000    1.000
