# CIF file generated by openbabel 3.1.0, see https://openbabel.org
data_I
_chemical_name_common 'image0'
_cell_length_a 29.689
_cell_length_b 19.312
_cell_length_c 29.424
_cell_angle_alpha 90
_cell_angle_beta 107.292
_cell_angle_gamma 90
_space_group_name_H-M_alt 'P 1'
_space_group_name_Hall 'P 1'
loop_
    _symmetry_equiv_pos_as_xyz
    x,y,z
loop_
    _atom_site_label
    _atom_site_type_symbol
    _atom_site_fract_x
    _atom_site_fract_y
    _atom_site_fract_z
    _atom_site_occupancy
    C1       C        0.27789    0.28772    0.29223    1.000
    C2       C        0.63308    0.92624    0.30891    1.000
    C3       C        0.39464    0.22310    0.28304    1.000
    H1       H        0.40560    0.18810    0.26740    1.000
    C4       C        0.27614    0.14988    0.36293    1.000
    C5       C        0.20185    0.19424    0.48980    1.000
    H2       H        0.19530    0.24140    0.48640    1.000
    C6       C        0.32977    0.28245    0.29942    1.000
    C7       C        0.61592    0.85864    0.40837    1.000
    C8       C        0.61120    0.99414    0.31375    1.000
    C9       C        0.64204    0.79828    0.39748    1.000
    C10      C        0.47498    0.09290    0.44889    1.000
    C11      C        0.64063    0.91860    0.42723    1.000
    H3       H        0.67290    0.92130    0.43160    1.000
    C12      C        0.55155    0.31790    0.31970    1.000
    C13      C        0.34781    0.14110    0.43396    1.000
    H4       H        0.32960    0.15610    0.45290    1.000
    C14      C        0.35457    0.10881    0.35749    1.000
    H5       H        0.34080    0.10070    0.32520    1.000
    C15      C        0.21955    0.09538    0.54039    1.000
    C16      C        0.64971    0.57465    0.31489    1.000
    C17      C        0.32721    0.13205    0.38517    1.000
    C18      C        0.34667    0.23097    0.27565    1.000
    H6       H        0.32560    0.20170    0.25470    1.000
    C19      C        0.50428    0.32160    0.31917    1.000
    H7       H        0.49030    0.36460    0.31920    1.000
    C20      C        0.64794    0.21000    0.70140    1.000
    C21      C        0.56755    0.85590    0.40005    1.000
    H8       H        0.55080    0.81670    0.38620    1.000
    C22      C        0.61731    0.97350    0.43938    1.000
    H9       H        0.63400    0.01330    0.45210    1.000
    C23      C        0.42375    0.10700    0.42658    1.000
    C24      C        0.56911    0.12322    0.31991    1.000
    C25      C        0.22512    0.99440    0.59315    1.000
    H10      H        0.22590    0.96700    0.56740    1.000
    C26      C        0.20994    0.16486    0.53439    1.000
    H11      H        0.20890    0.19200    0.56010    1.000
    C27      C        0.40255    0.09753    0.37782    1.000
    H12      H        0.42080    0.08350    0.35870    1.000
    C28      C        0.47815    0.26210    0.31856    1.000
    C29      C        0.42670    0.26762    0.31400    1.000
    C30      C        0.49970    0.19792    0.31979    1.000
    H13      H        0.48240    0.15790    0.32030    1.000
    C31      C        0.36195    0.32596    0.33109    1.000
    H14      H        0.35110    0.35980    0.34770    1.000
    C32      C        0.22420    0.06160    0.58667    1.000
    H15      H        0.22660    0.08990    0.61290    1.000
    C33      C        0.22507    0.95820    0.63680    1.000
    C34      C        0.49991    0.12650    0.49051    1.000
    H16      H        0.48520    0.16120    0.50290    1.000
    C35      C        0.57187    0.25299    0.31979    1.000
    H17      H        0.60300    0.25020    0.31950    1.000
    C36      C        0.57249    0.13780    0.56131    1.000
    C37      C        0.39533    0.12780    0.45424    1.000
    H18      H        0.40860    0.13290    0.48690    1.000
    C38      C        0.62161    0.18620    0.65196    1.000
    C39      C        0.54703    0.19242    0.32033    1.000
    C40      C        0.54212    0.06380    0.30640    1.000
    H19      H        0.50950    0.06690    0.29910    1.000
    C41      C        0.49776    0.04350    0.42929    1.000
    H20      H        0.48140    0.02170    0.40110    1.000
    C42      C        0.22053    0.85080    0.67652    1.000
    H21      H        0.22020    0.80260    0.67590    1.000
    C43      C        0.57005    0.20710    0.57303    1.000
    H22      H        0.55150    0.23750    0.55070    1.000
    C44      C        0.22461    0.99078    0.67889    1.000
    H23      H        0.22690    0.03870    0.68140    1.000
    C45      C        0.56244    0.00040    0.30343    1.000
    H24      H        0.54340    0.96140    0.29450    1.000
    C46      C        0.56848    0.05900    0.49367    1.000
    H25      H        0.59970    0.04740    0.50890    1.000
    C47      C        0.54405    0.91150    0.41232    1.000
    H26      H        0.51160    0.90930    0.40670    1.000
    C48      C        0.40971    0.31870    0.33764    1.000
    H27      H        0.43080    0.34850    0.35820    1.000
    C49      C        0.56873    0.97070    0.43298    1.000
    C50      C        0.54631    0.10920    0.51386    1.000
    C51      C        0.22354    0.05930    0.50104    1.000
    H28      H        0.23210    0.01280    0.50390    1.000
    C52      C        0.22081    0.95203    0.71656    1.000
    H29      H        0.22050    0.97500    0.74420    1.000
    C53      C        0.60086    0.39370    0.28466    1.000
    H30      H        0.60140    0.35870    0.26320    1.000
    C54      C        0.54480    0.02610    0.45126    1.000
    C55      C        0.60260    0.49640    0.35000    1.000
    H31      H        0.60410    0.53010    0.37300    1.000
    C56      C        0.59934    0.09350    0.59577    1.000
    H32      H        0.60120    0.04690    0.58840    1.000
    C57      C        0.57799    0.38294    0.31831    1.000
    C58      C        0.62338    0.11660    0.64081    1.000
    H33      H        0.64070    0.08570    0.66360    1.000
    C59      C        0.21502    0.09190    0.45819    1.000
    H34      H        0.21770    0.06630    0.43240    1.000
    C60      C        0.62442    0.50737    0.31497    1.000
    C61      C        0.59516    0.23160    0.61792    1.000
    H35      H        0.59420    0.27830    0.62510    1.000
    C62      C        0.61781    0.11570    0.33190    1.000
    H36      H        0.63700    0.15420    0.34220    1.000
    C63      C        0.63835    0.05230    0.32887    1.000
    H37      H        0.67100    0.04890    0.33720    1.000
    C64      C        0.62318    0.45620    0.28224    1.000
    H38      H        0.63730    0.46340    0.25840    1.000
    C65      C        0.57840    0.43520    0.35050    1.000
    H39      H        0.56230    0.42910    0.37290    1.000
    C66      C        0.22412    0.88590    0.63662    1.000
    H40      H        0.22590    0.86150    0.61000    1.000
    Co1      Co       0.20092    0.17458    0.26970    1.000
    Co2      Co       0.18894    0.19907    0.38114    1.000
    Co3      Co       0.19283    0.33214    0.29956    1.000
    N1       N        0.20301    0.15848    0.45130    1.000
    N2       N        0.21756    0.88253    0.71575    1.000
    O1       O        0.64772    0.27309    0.71160    1.000
    O2       O        0.66839    0.16246    0.72922    1.000
    O3       O        0.25145    0.24703    0.26309    1.000
    O4       O        0.26324    0.33272    0.31601    1.000
    O5       O        0.65564    0.59439    0.27626    1.000
    O6       O        0.66284    0.60547    0.35416    1.000
    O7       O        0.25619    0.12876    0.32174    1.000
    O8       O        0.25801    0.18737    0.38807    1.000
    O9       O        0.17484    0.23818    0.31260    1.000
    O10      O        0.68593    0.80210    0.40485    1.000
    O11      O        0.62067    0.74219    0.38241    1.000
    O12      O        0.67763    0.92329    0.32159    1.000
    O13      O        0.60845    0.87519    0.29186    1.000
    C67      C        0.77789    0.78772    0.29223    1.000
    C68      C        0.13308    0.42624    0.30891    1.000
    C69      C        0.89464    0.72310    0.28304    1.000
    H41      H        0.90560    0.68810    0.26740    1.000
    C70      C        0.77614    0.64988    0.36293    1.000
    C71      C        0.70185    0.69424    0.48980    1.000
    H42      H        0.69530    0.74140    0.48640    1.000
    C72      C        0.82977    0.78245    0.29942    1.000
    C73      C        0.11592    0.35864    0.40837    1.000
    C74      C        0.11120    0.49414    0.31375    1.000
    C75      C        0.14204    0.29828    0.39748    1.000
    C76      C        0.97498    0.59290    0.44889    1.000
    C77      C        0.14063    0.41860    0.42723    1.000
    H43      H        0.17290    0.42130    0.43160    1.000
    C78      C        0.05155    0.81790    0.31970    1.000
    C79      C        0.84781    0.64110    0.43396    1.000
    H44      H        0.82960    0.65610    0.45290    1.000
    C80      C        0.85457    0.60881    0.35749    1.000
    H45      H        0.84080    0.60070    0.32520    1.000
    C81      C        0.71955    0.59538    0.54039    1.000
    C82      C        0.14971    0.07465    0.31489    1.000
    C83      C        0.82721    0.63205    0.38517    1.000
    C84      C        0.84667    0.73097    0.27565    1.000
    H46      H        0.82560    0.70170    0.25470    1.000
    C85      C        0.00428    0.82160    0.31917    1.000
    H47      H        0.99030    0.86460    0.31920    1.000
    C86      C        0.14794    0.71000    0.70140    1.000
    C87      C        0.06755    0.35590    0.40005    1.000
    H48      H        0.05080    0.31670    0.38620    1.000
    C88      C        0.11731    0.47350    0.43938    1.000
    H49      H        0.13400    0.51330    0.45210    1.000
    C89      C        0.92375    0.60700    0.42658    1.000
    C90      C        0.06911    0.62322    0.31991    1.000
    C91      C        0.72512    0.49440    0.59315    1.000
    H50      H        0.72590    0.46700    0.56740    1.000
    C92      C        0.70994    0.66486    0.53439    1.000
    H51      H        0.70890    0.69200    0.56010    1.000
    C93      C        0.90255    0.59753    0.37782    1.000
    H52      H        0.92080    0.58350    0.35870    1.000
    C94      C        0.97815    0.76210    0.31856    1.000
    C95      C        0.92670    0.76762    0.31400    1.000
    C96      C        0.99970    0.69792    0.31979    1.000
    H53      H        0.98240    0.65790    0.32030    1.000
    C97      C        0.86195    0.82596    0.33109    1.000
    H54      H        0.85110    0.85980    0.34770    1.000
    C98      C        0.72420    0.56160    0.58667    1.000
    H55      H        0.72660    0.58990    0.61290    1.000
    C99      C        0.72507    0.45820    0.63680    1.000
    C100     C        0.99991    0.62650    0.49051    1.000
    H56      H        0.98520    0.66120    0.50290    1.000
    C101     C        0.07187    0.75299    0.31979    1.000
    H57      H        0.10300    0.75020    0.31950    1.000
    C102     C        0.07249    0.63780    0.56131    1.000
    C103     C        0.89533    0.62780    0.45424    1.000
    H58      H        0.90860    0.63290    0.48690    1.000
    C104     C        0.12161    0.68620    0.65196    1.000
    C105     C        0.04703    0.69242    0.32033    1.000
    C106     C        0.04212    0.56380    0.30640    1.000
    H59      H        0.00950    0.56690    0.29910    1.000
    C107     C        0.99776    0.54350    0.42929    1.000
    H60      H        0.98140    0.52170    0.40110    1.000
    C108     C        0.72053    0.35080    0.67652    1.000
    H61      H        0.72020    0.30260    0.67590    1.000
    C109     C        0.07005    0.70710    0.57303    1.000
    H62      H        0.05150    0.73750    0.55070    1.000
    C110     C        0.72461    0.49078    0.67889    1.000
    H63      H        0.72690    0.53870    0.68140    1.000
    C111     C        0.06244    0.50040    0.30343    1.000
    H64      H        0.04340    0.46140    0.29450    1.000
    C112     C        0.06848    0.55900    0.49367    1.000
    H65      H        0.09970    0.54740    0.50890    1.000
    C113     C        0.04405    0.41150    0.41232    1.000
    H66      H        0.01160    0.40930    0.40670    1.000
    C114     C        0.90971    0.81870    0.33764    1.000
    H67      H        0.93080    0.84850    0.35820    1.000
    C115     C        0.06873    0.47070    0.43298    1.000
    C116     C        0.04631    0.60920    0.51386    1.000
    C117     C        0.72354    0.55930    0.50104    1.000
    H68      H        0.73210    0.51280    0.50390    1.000
    C118     C        0.72081    0.45203    0.71656    1.000
    H69      H        0.72050    0.47500    0.74420    1.000
    C119     C        0.10086    0.89370    0.28466    1.000
    H70      H        0.10140    0.85870    0.26320    1.000
    C120     C        0.04480    0.52610    0.45126    1.000
    C121     C        0.10260    0.99640    0.35000    1.000
    H71      H        0.10410    0.03010    0.37300    1.000
    C122     C        0.09934    0.59350    0.59577    1.000
    H72      H        0.10120    0.54690    0.58840    1.000
    C123     C        0.07799    0.88294    0.31831    1.000
    C124     C        0.12338    0.61660    0.64081    1.000
    H73      H        0.14070    0.58570    0.66360    1.000
    C125     C        0.71502    0.59190    0.45819    1.000
    H74      H        0.71770    0.56630    0.43240    1.000
    C126     C        0.12442    0.00737    0.31497    1.000
    C127     C        0.09516    0.73160    0.61792    1.000
    H75      H        0.09420    0.77830    0.62510    1.000
    C128     C        0.11781    0.61570    0.33190    1.000
    H76      H        0.13700    0.65420    0.34220    1.000
    C129     C        0.13835    0.55230    0.32887    1.000
    H77      H        0.17100    0.54890    0.33720    1.000
    C130     C        0.12318    0.95620    0.28224    1.000
    H78      H        0.13730    0.96340    0.25840    1.000
    C131     C        0.07840    0.93520    0.35050    1.000
    H79      H        0.06230    0.92910    0.37290    1.000
    C132     C        0.72412    0.38590    0.63662    1.000
    H80      H        0.72590    0.36150    0.61000    1.000
    Co4      Co       0.70092    0.67458    0.26970    1.000
    Co5      Co       0.68894    0.69907    0.38114    1.000
    Co6      Co       0.69283    0.83214    0.29956    1.000
    N3       N        0.70301    0.65848    0.45130    1.000
    N4       N        0.71756    0.38253    0.71575    1.000
    O14      O        0.14772    0.77309    0.71160    1.000
    O15      O        0.16839    0.66246    0.72922    1.000
    O16      O        0.75145    0.74703    0.26309    1.000
    O17      O        0.76324    0.83272    0.31601    1.000
    O18      O        0.15564    0.09439    0.27626    1.000
    O19      O        0.16284    0.10547    0.35416    1.000
    O20      O        0.75619    0.62876    0.32174    1.000
    O21      O        0.75801    0.68737    0.38807    1.000
    O22      O        0.67484    0.73818    0.31260    1.000
    O23      O        0.18593    0.30210    0.40485    1.000
    O24      O        0.12067    0.24219    0.38241    1.000
    O25      O        0.17763    0.42329    0.32159    1.000
    O26      O        0.10845    0.37519    0.29186    1.000
    C133     C        0.27789    0.71228    0.79223    1.000
    C134     C        0.63308    0.07376    0.80891    1.000
    C135     C        0.39464    0.77690    0.78304    1.000
    H81      H        0.40560    0.81190    0.76740    1.000
    C136     C        0.27614    0.85012    0.86293    1.000
    C137     C        0.20185    0.80576    0.98980    1.000
    H82      H        0.19530    0.75860    0.98640    1.000
    C138     C        0.32977    0.71755    0.79942    1.000
    C139     C        0.61592    0.14136    0.90837    1.000
    C140     C        0.61120    0.00586    0.81375    1.000
    C141     C        0.64204    0.20172    0.89748    1.000
    C142     C        0.47498    0.90710    0.94889    1.000
    C143     C        0.64063    0.08140    0.92723    1.000
    H83      H        0.67290    0.07870    0.93160    1.000
    C144     C        0.55155    0.68210    0.81970    1.000
    C145     C        0.34781    0.85890    0.93396    1.000
    H84      H        0.32960    0.84390    0.95290    1.000
    C146     C        0.35457    0.89119    0.85749    1.000
    H85      H        0.34080    0.89930    0.82520    1.000
    C147     C        0.21955    0.90462    0.04039    1.000
    C148     C        0.64971    0.42535    0.81489    1.000
    C149     C        0.32721    0.86795    0.88517    1.000
    C150     C        0.34667    0.76903    0.77565    1.000
    H86      H        0.32560    0.79830    0.75470    1.000
    C151     C        0.50428    0.67840    0.81917    1.000
    H87      H        0.49030    0.63540    0.81920    1.000
    C152     C        0.64794    0.79000    0.20140    1.000
    C153     C        0.56755    0.14410    0.90005    1.000
    H88      H        0.55080    0.18330    0.88620    1.000
    C154     C        0.61731    0.02650    0.93938    1.000
    H89      H        0.63400    0.98670    0.95210    1.000
    C155     C        0.42375    0.89300    0.92658    1.000
    C156     C        0.56911    0.87678    0.81991    1.000
    C157     C        0.22512    0.00560    0.09315    1.000
    H90      H        0.22590    0.03300    0.06740    1.000
    C158     C        0.20994    0.83514    0.03439    1.000
    H91      H        0.20890    0.80800    0.06010    1.000
    C159     C        0.40255    0.90247    0.87782    1.000
    H92      H        0.42080    0.91650    0.85870    1.000
    C160     C        0.47815    0.73790    0.81856    1.000
    C161     C        0.42670    0.73238    0.81400    1.000
    C162     C        0.49970    0.80208    0.81979    1.000
    H93      H        0.48240    0.84210    0.82030    1.000
    C163     C        0.36195    0.67404    0.83109    1.000
    H94      H        0.35110    0.64020    0.84770    1.000
    C164     C        0.22420    0.93840    0.08667    1.000
    H95      H        0.22660    0.91010    0.11290    1.000
    C165     C        0.22507    0.04180    0.13680    1.000
    C166     C        0.49991    0.87350    0.99051    1.000
    H96      H        0.48520    0.83880    0.00290    1.000
    C167     C        0.57187    0.74701    0.81979    1.000
    H97      H        0.60300    0.74980    0.81950    1.000
    C168     C        0.57249    0.86220    0.06131    1.000
    C169     C        0.39533    0.87220    0.95424    1.000
    H98      H        0.40860    0.86710    0.98690    1.000
    C170     C        0.62161    0.81380    0.15196    1.000
    C171     C        0.54703    0.80758    0.82033    1.000
    C172     C        0.54212    0.93620    0.80640    1.000
    H99      H        0.50950    0.93310    0.79910    1.000
    C173     C        0.49776    0.95650    0.92929    1.000
    H100     H        0.48140    0.97830    0.90110    1.000
    C174     C        0.22053    0.14920    0.17652    1.000
    H101     H        0.22020    0.19740    0.17590    1.000
    C175     C        0.57005    0.79290    0.07303    1.000
    H102     H        0.55150    0.76250    0.05070    1.000
    C176     C        0.22461    0.00922    0.17889    1.000
    H103     H        0.22690    0.96130    0.18140    1.000
    C177     C        0.56244    0.99960    0.80343    1.000
    H104     H        0.54340    0.03860    0.79450    1.000
    C178     C        0.56848    0.94100    0.99367    1.000
    H105     H        0.59970    0.95260    0.00890    1.000
    C179     C        0.54405    0.08850    0.91232    1.000
    H106     H        0.51160    0.09070    0.90670    1.000
    C180     C        0.40971    0.68130    0.83764    1.000
    H107     H        0.43080    0.65150    0.85820    1.000
    C181     C        0.56873    0.02930    0.93298    1.000
    C182     C        0.54631    0.89080    0.01386    1.000
    C183     C        0.22354    0.94070    0.00104    1.000
    H108     H        0.23210    0.98720    0.00390    1.000
    C184     C        0.22081    0.04797    0.21656    1.000
    H109     H        0.22050    0.02500    0.24420    1.000
    C185     C        0.60086    0.60630    0.78466    1.000
    H110     H        0.60140    0.64130    0.76320    1.000
    C186     C        0.54480    0.97390    0.95126    1.000
    C187     C        0.60260    0.50360    0.85000    1.000
    H111     H        0.60410    0.46990    0.87300    1.000
    C188     C        0.59934    0.90650    0.09577    1.000
    H112     H        0.60120    0.95310    0.08840    1.000
    C189     C        0.57799    0.61706    0.81831    1.000
    C190     C        0.62338    0.88340    0.14081    1.000
    H113     H        0.64070    0.91430    0.16360    1.000
    C191     C        0.21502    0.90810    0.95819    1.000
    H114     H        0.21770    0.93370    0.93240    1.000
    C192     C        0.62442    0.49263    0.81497    1.000
    C193     C        0.59516    0.76840    0.11792    1.000
    H115     H        0.59420    0.72170    0.12510    1.000
    C194     C        0.61781    0.88430    0.83190    1.000
    H116     H        0.63700    0.84580    0.84220    1.000
    C195     C        0.63835    0.94770    0.82887    1.000
    H117     H        0.67100    0.95110    0.83720    1.000
    C196     C        0.62318    0.54380    0.78224    1.000
    H118     H        0.63730    0.53660    0.75840    1.000
    C197     C        0.57840    0.56480    0.85050    1.000
    H119     H        0.56230    0.57090    0.87290    1.000
    C198     C        0.22412    0.11410    0.13662    1.000
    H120     H        0.22590    0.13850    0.11000    1.000
    Co7      Co       0.20092    0.82542    0.76970    1.000
    Co8      Co       0.18894    0.80093    0.88114    1.000
    Co9      Co       0.19283    0.66786    0.79956    1.000
    N5       N        0.20301    0.84152    0.95130    1.000
    N6       N        0.21756    0.11747    0.21575    1.000
    O27      O        0.64772    0.72691    0.21160    1.000
    O28      O        0.66839    0.83754    0.22922    1.000
    O29      O        0.25145    0.75297    0.76309    1.000
    O30      O        0.26324    0.66728    0.81601    1.000
    O31      O        0.65564    0.40561    0.77626    1.000
    O32      O        0.66284    0.39453    0.85416    1.000
    O33      O        0.25619    0.87124    0.82174    1.000
    O34      O        0.25801    0.81263    0.88807    1.000
    O35      O        0.17484    0.76182    0.81260    1.000
    O36      O        0.68593    0.19790    0.90485    1.000
    O37      O        0.62067    0.25781    0.88241    1.000
    O38      O        0.67763    0.07671    0.82159    1.000
    O39      O        0.60845    0.12481    0.79186    1.000
    C199     C        0.77789    0.21228    0.79223    1.000
    C200     C        0.13308    0.57376    0.80891    1.000
    C201     C        0.89464    0.27690    0.78304    1.000
    H121     H        0.90560    0.31190    0.76740    1.000
    C202     C        0.77614    0.35012    0.86293    1.000
    C203     C        0.70185    0.30576    0.98980    1.000
    H122     H        0.69530    0.25860    0.98640    1.000
    C204     C        0.82977    0.21755    0.79942    1.000
    C205     C        0.11592    0.64136    0.90837    1.000
    C206     C        0.11120    0.50586    0.81375    1.000
    C207     C        0.14204    0.70172    0.89748    1.000
    C208     C        0.97498    0.40710    0.94889    1.000
    C209     C        0.14063    0.58140    0.92723    1.000
    H123     H        0.17290    0.57870    0.93160    1.000
    C210     C        0.05155    0.18210    0.81970    1.000
    C211     C        0.84781    0.35890    0.93396    1.000
    H124     H        0.82960    0.34390    0.95290    1.000
    C212     C        0.85457    0.39119    0.85749    1.000
    H125     H        0.84080    0.39930    0.82520    1.000
    C213     C        0.71955    0.40462    0.04039    1.000
    C214     C        0.14971    0.92535    0.81489    1.000
    C215     C        0.82721    0.36795    0.88517    1.000
    C216     C        0.84667    0.26903    0.77565    1.000
    H126     H        0.82560    0.29830    0.75470    1.000
    C217     C        0.00428    0.17840    0.81917    1.000
    H127     H        0.99030    0.13540    0.81920    1.000
    C218     C        0.14794    0.29000    0.20140    1.000
    C219     C        0.06755    0.64410    0.90005    1.000
    H128     H        0.05080    0.68330    0.88620    1.000
    C220     C        0.11731    0.52650    0.93938    1.000
    H129     H        0.13400    0.48670    0.95210    1.000
    C221     C        0.92375    0.39300    0.92658    1.000
    C222     C        0.06911    0.37678    0.81991    1.000
    C223     C        0.72512    0.50560    0.09315    1.000
    H130     H        0.72590    0.53300    0.06740    1.000
    C224     C        0.70994    0.33514    0.03439    1.000
    H131     H        0.70890    0.30800    0.06010    1.000
    C225     C        0.90255    0.40247    0.87782    1.000
    H132     H        0.92080    0.41650    0.85870    1.000
    C226     C        0.97815    0.23790    0.81856    1.000
    C227     C        0.92670    0.23238    0.81400    1.000
    C228     C        0.99970    0.30208    0.81979    1.000
    H133     H        0.98240    0.34210    0.82030    1.000
    C229     C        0.86195    0.17404    0.83109    1.000
    H134     H        0.85110    0.14020    0.84770    1.000
    C230     C        0.72420    0.43840    0.08667    1.000
    H135     H        0.72660    0.41010    0.11290    1.000
    C231     C        0.72507    0.54180    0.13680    1.000
    C232     C        0.99991    0.37350    0.99051    1.000
    H136     H        0.98520    0.33880    0.00290    1.000
    C233     C        0.07187    0.24701    0.81979    1.000
    H137     H        0.10300    0.24980    0.81950    1.000
    C234     C        0.07249    0.36220    0.06131    1.000
    C235     C        0.89533    0.37220    0.95424    1.000
    H138     H        0.90860    0.36710    0.98690    1.000
    C236     C        0.12161    0.31380    0.15196    1.000
    C237     C        0.04703    0.30758    0.82033    1.000
    C238     C        0.04212    0.43620    0.80640    1.000
    H139     H        0.00950    0.43310    0.79910    1.000
    C239     C        0.99776    0.45650    0.92929    1.000
    H140     H        0.98140    0.47830    0.90110    1.000
    C240     C        0.72053    0.64920    0.17652    1.000
    H141     H        0.72020    0.69740    0.17590    1.000
    C241     C        0.07005    0.29290    0.07303    1.000
    H142     H        0.05150    0.26250    0.05070    1.000
    C242     C        0.72461    0.50922    0.17889    1.000
    H143     H        0.72690    0.46130    0.18140    1.000
    C243     C        0.06244    0.49960    0.80343    1.000
    H144     H        0.04340    0.53860    0.79450    1.000
    C244     C        0.06848    0.44100    0.99367    1.000
    H145     H        0.09970    0.45260    0.00890    1.000
    C245     C        0.04405    0.58850    0.91232    1.000
    H146     H        0.01160    0.59070    0.90670    1.000
    C246     C        0.90971    0.18130    0.83764    1.000
    H147     H        0.93080    0.15150    0.85820    1.000
    C247     C        0.06873    0.52930    0.93298    1.000
    C248     C        0.04631    0.39080    0.01386    1.000
    C249     C        0.72354    0.44070    0.00104    1.000
    H148     H        0.73210    0.48720    0.00390    1.000
    C250     C        0.72081    0.54797    0.21656    1.000
    H149     H        0.72050    0.52500    0.24420    1.000
    C251     C        0.10086    0.10630    0.78466    1.000
    H150     H        0.10140    0.14130    0.76320    1.000
    C252     C        0.04480    0.47390    0.95126    1.000
    C253     C        0.10260    0.00360    0.85000    1.000
    H151     H        0.10410    0.96990    0.87300    1.000
    C254     C        0.09934    0.40650    0.09577    1.000
    H152     H        0.10120    0.45310    0.08840    1.000
    C255     C        0.07799    0.11706    0.81831    1.000
    C256     C        0.12338    0.38340    0.14081    1.000
    H153     H        0.14070    0.41430    0.16360    1.000
    C257     C        0.71502    0.40810    0.95819    1.000
    H154     H        0.71770    0.43370    0.93240    1.000
    C258     C        0.12442    0.99263    0.81497    1.000
    C259     C        0.09516    0.26840    0.11792    1.000
    H155     H        0.09420    0.22170    0.12510    1.000
    C260     C        0.11781    0.38430    0.83190    1.000
    H156     H        0.13700    0.34580    0.84220    1.000
    C261     C        0.13835    0.44770    0.82887    1.000
    H157     H        0.17100    0.45110    0.83720    1.000
    C262     C        0.12318    0.04380    0.78224    1.000
    H158     H        0.13730    0.03660    0.75840    1.000
    C263     C        0.07840    0.06480    0.85050    1.000
    H159     H        0.06230    0.07090    0.87290    1.000
    C264     C        0.72412    0.61410    0.13662    1.000
    H160     H        0.72590    0.63850    0.11000    1.000
    Co10     Co       0.70092    0.32542    0.76970    1.000
    Co11     Co       0.68894    0.30093    0.88114    1.000
    Co12     Co       0.69283    0.16786    0.79956    1.000
    N7       N        0.70301    0.34152    0.95130    1.000
    N8       N        0.71756    0.61747    0.21575    1.000
    O40      O        0.14772    0.22691    0.21160    1.000
    O41      O        0.16839    0.33754    0.22922    1.000
    O42      O        0.75145    0.25297    0.76309    1.000
    O43      O        0.76324    0.16728    0.81601    1.000
    O44      O        0.15564    0.90561    0.77626    1.000
    O45      O        0.16284    0.89453    0.85416    1.000
    O46      O        0.75619    0.37124    0.82174    1.000
    O47      O        0.75801    0.31263    0.88807    1.000
    O48      O        0.67484    0.26182    0.81260    1.000
    O49      O        0.18593    0.69790    0.90485    1.000
    O50      O        0.12067    0.75781    0.88241    1.000
    O51      O        0.17763    0.57671    0.82159    1.000
    O52      O        0.10845    0.62481    0.79186    1.000
    C265     C        0.72211    0.28772    0.20777    1.000
    C266     C        0.36692    0.92624    0.19109    1.000
    C267     C        0.60536    0.22310    0.21696    1.000
    H161     H        0.59440    0.18810    0.23260    1.000
    C268     C        0.72386    0.14988    0.13707    1.000
    C269     C        0.79815    0.19424    0.01020    1.000
    H162     H        0.80470    0.24140    0.01360    1.000
    C270     C        0.67023    0.28245    0.20058    1.000
    C271     C        0.38408    0.85864    0.09163    1.000
    C272     C        0.38880    0.99414    0.18625    1.000
    C273     C        0.35796    0.79828    0.10252    1.000
    C274     C        0.52502    0.09290    0.05111    1.000
    C275     C        0.35937    0.91860    0.07277    1.000
    H163     H        0.32710    0.92130    0.06840    1.000
    C276     C        0.44845    0.31790    0.18030    1.000
    C277     C        0.65219    0.14110    0.06604    1.000
    H164     H        0.67040    0.15610    0.04710    1.000
    C278     C        0.64543    0.10881    0.14251    1.000
    H165     H        0.65920    0.10070    0.17480    1.000
    C279     C        0.78045    0.09538    0.95961    1.000
    C280     C        0.35029    0.57465    0.18511    1.000
    C281     C        0.67279    0.13205    0.11483    1.000
    C282     C        0.65333    0.23097    0.22435    1.000
    H166     H        0.67440    0.20170    0.24530    1.000
    C283     C        0.49572    0.32160    0.18083    1.000
    H167     H        0.50970    0.36460    0.18080    1.000
    C284     C        0.35206    0.21000    0.79860    1.000
    C285     C        0.43245    0.85590    0.09995    1.000
    H168     H        0.44920    0.81670    0.11380    1.000
    C286     C        0.38269    0.97350    0.06062    1.000
    H169     H        0.36600    0.01330    0.04790    1.000
    C287     C        0.57625    0.10700    0.07342    1.000
    C288     C        0.43089    0.12322    0.18009    1.000
    C289     C        0.77488    0.99440    0.90685    1.000
    H170     H        0.77410    0.96700    0.93260    1.000
    C290     C        0.79006    0.16486    0.96561    1.000
    H171     H        0.79110    0.19200    0.93990    1.000
    C291     C        0.59745    0.09753    0.12218    1.000
    H172     H        0.57920    0.08350    0.14130    1.000
    C292     C        0.52185    0.26210    0.18144    1.000
    C293     C        0.57330    0.26762    0.18600    1.000
    C294     C        0.50030    0.19792    0.18021    1.000
    H173     H        0.51760    0.15790    0.17970    1.000
    C295     C        0.63805    0.32596    0.16891    1.000
    H174     H        0.64890    0.35980    0.15230    1.000
    C296     C        0.77580    0.06160    0.91333    1.000
    H175     H        0.77340    0.08990    0.88710    1.000
    C297     C        0.77493    0.95820    0.86320    1.000
    C298     C        0.50009    0.12650    0.00949    1.000
    H176     H        0.51480    0.16120    0.99710    1.000
    C299     C        0.42813    0.25299    0.18021    1.000
    H177     H        0.39700    0.25020    0.18050    1.000
    C300     C        0.42751    0.13780    0.93869    1.000
    C301     C        0.60467    0.12780    0.04576    1.000
    H178     H        0.59140    0.13290    0.01310    1.000
    C302     C        0.37839    0.18620    0.84804    1.000
    C303     C        0.45297    0.19242    0.17967    1.000
    C304     C        0.45788    0.06380    0.19360    1.000
    H179     H        0.49050    0.06690    0.20090    1.000
    C305     C        0.50224    0.04350    0.07071    1.000
    H180     H        0.51860    0.02170    0.09890    1.000
    C306     C        0.77947    0.85080    0.82348    1.000
    H181     H        0.77980    0.80260    0.82410    1.000
    C307     C        0.42995    0.20710    0.92697    1.000
    H182     H        0.44850    0.23750    0.94930    1.000
    C308     C        0.77539    0.99078    0.82111    1.000
    H183     H        0.77310    0.03870    0.81860    1.000
    C309     C        0.43756    0.00040    0.19657    1.000
    H184     H        0.45660    0.96140    0.20550    1.000
    C310     C        0.43152    0.05900    0.00633    1.000
    H185     H        0.40030    0.04740    0.99110    1.000
    C311     C        0.45595    0.91150    0.08768    1.000
    H186     H        0.48840    0.90930    0.09330    1.000
    C312     C        0.59029    0.31870    0.16236    1.000
    H187     H        0.56920    0.34850    0.14180    1.000
    C313     C        0.43127    0.97070    0.06702    1.000
    C314     C        0.45369    0.10920    0.98614    1.000
    C315     C        0.77646    0.05930    0.99896    1.000
    H188     H        0.76790    0.01280    0.99610    1.000
    C316     C        0.77919    0.95203    0.78344    1.000
    H189     H        0.77950    0.97500    0.75580    1.000
    C317     C        0.39914    0.39370    0.21534    1.000
    H190     H        0.39860    0.35870    0.23680    1.000
    C318     C        0.45520    0.02610    0.04874    1.000
    C319     C        0.39740    0.49640    0.15000    1.000
    H191     H        0.39590    0.53010    0.12700    1.000
    C320     C        0.40066    0.09350    0.90423    1.000
    H192     H        0.39880    0.04690    0.91160    1.000
    C321     C        0.42201    0.38294    0.18169    1.000
    C322     C        0.37662    0.11660    0.85919    1.000
    H193     H        0.35930    0.08570    0.83640    1.000
    C323     C        0.78498    0.09190    0.04181    1.000
    H194     H        0.78230    0.06630    0.06760    1.000
    C324     C        0.37558    0.50737    0.18503    1.000
    C325     C        0.40484    0.23160    0.88208    1.000
    H195     H        0.40580    0.27830    0.87490    1.000
    C326     C        0.38219    0.11570    0.16810    1.000
    H196     H        0.36300    0.15420    0.15780    1.000
    C327     C        0.36165    0.05230    0.17113    1.000
    H197     H        0.32900    0.04890    0.16280    1.000
    C328     C        0.37682    0.45620    0.21776    1.000
    H198     H        0.36270    0.46340    0.24160    1.000
    C329     C        0.42160    0.43520    0.14950    1.000
    H199     H        0.43770    0.42910    0.12710    1.000
    C330     C        0.77588    0.88590    0.86338    1.000
    H200     H        0.77410    0.86150    0.89000    1.000
    Co13     Co       0.79908    0.17458    0.23030    1.000
    Co14     Co       0.81106    0.19907    0.11886    1.000
    Co15     Co       0.80717    0.33214    0.20044    1.000
    N9       N        0.79699    0.15848    0.04870    1.000
    N10      N        0.78244    0.88253    0.78425    1.000
    O53      O        0.35228    0.27309    0.78840    1.000
    O54      O        0.33161    0.16246    0.77078    1.000
    O55      O        0.74855    0.24703    0.23691    1.000
    O56      O        0.73676    0.33272    0.18399    1.000
    O57      O        0.34436    0.59439    0.22374    1.000
    O58      O        0.33716    0.60547    0.14584    1.000
    O59      O        0.74381    0.12876    0.17826    1.000
    O60      O        0.74199    0.18737    0.11193    1.000
    O61      O        0.82516    0.23818    0.18740    1.000
    O62      O        0.31407    0.80210    0.09515    1.000
    O63      O        0.37933    0.74219    0.11759    1.000
    O64      O        0.32237    0.92329    0.17841    1.000
    O65      O        0.39155    0.87519    0.20814    1.000
    C331     C        0.22211    0.78772    0.20777    1.000
    C332     C        0.86692    0.42624    0.19109    1.000
    C333     C        0.10536    0.72310    0.21696    1.000
    H201     H        0.09440    0.68810    0.23260    1.000
    C334     C        0.22386    0.64988    0.13707    1.000
    C335     C        0.29815    0.69424    0.01020    1.000
    H202     H        0.30470    0.74140    0.01360    1.000
    C336     C        0.17023    0.78245    0.20058    1.000
    C337     C        0.88408    0.35864    0.09163    1.000
    C338     C        0.88880    0.49414    0.18625    1.000
    C339     C        0.85796    0.29828    0.10252    1.000
    C340     C        0.02502    0.59290    0.05111    1.000
    C341     C        0.85937    0.41860    0.07277    1.000
    H203     H        0.82710    0.42130    0.06840    1.000
    C342     C        0.94845    0.81790    0.18030    1.000
    C343     C        0.15219    0.64110    0.06604    1.000
    H204     H        0.17040    0.65610    0.04710    1.000
    C344     C        0.14543    0.60881    0.14251    1.000
    H205     H        0.15920    0.60070    0.17480    1.000
    C345     C        0.28045    0.59538    0.95961    1.000
    C346     C        0.85029    0.07465    0.18511    1.000
    C347     C        0.17279    0.63205    0.11483    1.000
    C348     C        0.15333    0.73097    0.22435    1.000
    H206     H        0.17440    0.70170    0.24530    1.000
    C349     C        0.99572    0.82160    0.18083    1.000
    H207     H        0.00970    0.86460    0.18080    1.000
    C350     C        0.85206    0.71000    0.79860    1.000
    C351     C        0.93245    0.35590    0.09995    1.000
    H208     H        0.94920    0.31670    0.11380    1.000
    C352     C        0.88269    0.47350    0.06062    1.000
    H209     H        0.86600    0.51330    0.04790    1.000
    C353     C        0.07625    0.60700    0.07342    1.000
    C354     C        0.93089    0.62322    0.18009    1.000
    C355     C        0.27488    0.49440    0.90685    1.000
    H210     H        0.27410    0.46700    0.93260    1.000
    C356     C        0.29006    0.66486    0.96561    1.000
    H211     H        0.29110    0.69200    0.93990    1.000
    C357     C        0.09745    0.59753    0.12218    1.000
    H212     H        0.07920    0.58350    0.14130    1.000
    C358     C        0.02185    0.76210    0.18144    1.000
    C359     C        0.07330    0.76762    0.18600    1.000
    C360     C        0.00030    0.69792    0.18021    1.000
    H213     H        0.01760    0.65790    0.17970    1.000
    C361     C        0.13805    0.82596    0.16891    1.000
    H214     H        0.14890    0.85980    0.15230    1.000
    C362     C        0.27580    0.56160    0.91333    1.000
    H215     H        0.27340    0.58990    0.88710    1.000
    C363     C        0.27493    0.45820    0.86320    1.000
    C364     C        0.00009    0.62650    0.00949    1.000
    H216     H        0.01480    0.66120    0.99710    1.000
    C365     C        0.92813    0.75299    0.18021    1.000
    H217     H        0.89700    0.75020    0.18050    1.000
    C366     C        0.92751    0.63780    0.93869    1.000
    C367     C        0.10467    0.62780    0.04576    1.000
    H218     H        0.09140    0.63290    0.01310    1.000
    C368     C        0.87839    0.68620    0.84804    1.000
    C369     C        0.95297    0.69242    0.17967    1.000
    C370     C        0.95788    0.56380    0.19360    1.000
    H219     H        0.99050    0.56690    0.20090    1.000
    C371     C        0.00224    0.54350    0.07071    1.000
    H220     H        0.01860    0.52170    0.09890    1.000
    C372     C        0.27947    0.35080    0.82348    1.000
    H221     H        0.27980    0.30260    0.82410    1.000
    C373     C        0.92995    0.70710    0.92697    1.000
    H222     H        0.94850    0.73750    0.94930    1.000
    C374     C        0.27539    0.49078    0.82111    1.000
    H223     H        0.27310    0.53870    0.81860    1.000
    C375     C        0.93756    0.50040    0.19657    1.000
    H224     H        0.95660    0.46140    0.20550    1.000
    C376     C        0.93152    0.55900    0.00633    1.000
    H225     H        0.90030    0.54740    0.99110    1.000
    C377     C        0.95595    0.41150    0.08768    1.000
    H226     H        0.98840    0.40930    0.09330    1.000
    C378     C        0.09029    0.81870    0.16236    1.000
    H227     H        0.06920    0.84850    0.14180    1.000
    C379     C        0.93127    0.47070    0.06702    1.000
    C380     C        0.95369    0.60920    0.98614    1.000
    C381     C        0.27646    0.55930    0.99896    1.000
    H228     H        0.26790    0.51280    0.99610    1.000
    C382     C        0.27919    0.45203    0.78344    1.000
    H229     H        0.27950    0.47500    0.75580    1.000
    C383     C        0.89914    0.89370    0.21534    1.000
    H230     H        0.89860    0.85870    0.23680    1.000
    C384     C        0.95520    0.52610    0.04874    1.000
    C385     C        0.89740    0.99640    0.15000    1.000
    H231     H        0.89590    0.03010    0.12700    1.000
    C386     C        0.90066    0.59350    0.90423    1.000
    H232     H        0.89880    0.54690    0.91160    1.000
    C387     C        0.92201    0.88294    0.18169    1.000
    C388     C        0.87662    0.61660    0.85919    1.000
    H233     H        0.85930    0.58570    0.83640    1.000
    C389     C        0.28498    0.59190    0.04181    1.000
    H234     H        0.28230    0.56630    0.06760    1.000
    C390     C        0.87558    0.00737    0.18503    1.000
    C391     C        0.90484    0.73160    0.88208    1.000
    H235     H        0.90580    0.77830    0.87490    1.000
    C392     C        0.88219    0.61570    0.16810    1.000
    H236     H        0.86300    0.65420    0.15780    1.000
    C393     C        0.86165    0.55230    0.17113    1.000
    H237     H        0.82900    0.54890    0.16280    1.000
    C394     C        0.87682    0.95620    0.21776    1.000
    H238     H        0.86270    0.96340    0.24160    1.000
    C395     C        0.92160    0.93520    0.14950    1.000
    H239     H        0.93770    0.92910    0.12710    1.000
    C396     C        0.27588    0.38590    0.86338    1.000
    H240     H        0.27410    0.36150    0.89000    1.000
    Co16     Co       0.29908    0.67458    0.23030    1.000
    Co17     Co       0.31106    0.69907    0.11886    1.000
    Co18     Co       0.30717    0.83214    0.20044    1.000
    N11      N        0.29699    0.65848    0.04870    1.000
    N12      N        0.28244    0.38253    0.78425    1.000
    O66      O        0.85228    0.77309    0.78840    1.000
    O67      O        0.83161    0.66246    0.77078    1.000
    O68      O        0.24855    0.74703    0.23691    1.000
    O69      O        0.23676    0.83272    0.18399    1.000
    O70      O        0.84436    0.09439    0.22374    1.000
    O71      O        0.83716    0.10547    0.14584    1.000
    O72      O        0.24381    0.62876    0.17826    1.000
    O73      O        0.24199    0.68737    0.11193    1.000
    O74      O        0.32516    0.73818    0.18740    1.000
    O75      O        0.81407    0.30210    0.09515    1.000
    O76      O        0.87933    0.24219    0.11759    1.000
    O77      O        0.82237    0.42329    0.17841    1.000
    O78      O        0.89155    0.37519    0.20814    1.000
    C397     C        0.72211    0.71228    0.70777    1.000
    C398     C        0.36692    0.07376    0.69109    1.000
    C399     C        0.60536    0.77690    0.71696    1.000
    H241     H        0.59440    0.81190    0.73260    1.000
    C400     C        0.72386    0.85012    0.63707    1.000
    C401     C        0.79815    0.80576    0.51020    1.000
    H242     H        0.80470    0.75860    0.51360    1.000
    C402     C        0.67023    0.71755    0.70058    1.000
    C403     C        0.38408    0.14136    0.59163    1.000
    C404     C        0.38880    0.00586    0.68625    1.000
    C405     C        0.35796    0.20172    0.60252    1.000
    C406     C        0.52502    0.90710    0.55111    1.000
    C407     C        0.35937    0.08140    0.57277    1.000
    H243     H        0.32710    0.07870    0.56840    1.000
    C408     C        0.44845    0.68210    0.68030    1.000
    C409     C        0.65219    0.85890    0.56604    1.000
    H244     H        0.67040    0.84390    0.54710    1.000
    C410     C        0.64543    0.89119    0.64251    1.000
    H245     H        0.65920    0.89930    0.67480    1.000
    C411     C        0.78045    0.90462    0.45961    1.000
    C412     C        0.35029    0.42535    0.68511    1.000
    C413     C        0.67279    0.86795    0.61483    1.000
    C414     C        0.65333    0.76903    0.72435    1.000
    H246     H        0.67440    0.79830    0.74530    1.000
    C415     C        0.49572    0.67840    0.68083    1.000
    H247     H        0.50970    0.63540    0.68080    1.000
    C416     C        0.35206    0.79000    0.29860    1.000
    C417     C        0.43245    0.14410    0.59995    1.000
    H248     H        0.44920    0.18330    0.61380    1.000
    C418     C        0.38269    0.02650    0.56062    1.000
    H249     H        0.36600    0.98670    0.54790    1.000
    C419     C        0.57625    0.89300    0.57342    1.000
    C420     C        0.43089    0.87678    0.68009    1.000
    C421     C        0.77488    0.00560    0.40685    1.000
    H250     H        0.77410    0.03300    0.43260    1.000
    C422     C        0.79006    0.83514    0.46561    1.000
    H251     H        0.79110    0.80800    0.43990    1.000
    C423     C        0.59745    0.90247    0.62218    1.000
    H252     H        0.57920    0.91650    0.64130    1.000
    C424     C        0.52185    0.73790    0.68144    1.000
    C425     C        0.57330    0.73238    0.68600    1.000
    C426     C        0.50030    0.80208    0.68021    1.000
    H253     H        0.51760    0.84210    0.67970    1.000
    C427     C        0.63805    0.67404    0.66891    1.000
    H254     H        0.64890    0.64020    0.65230    1.000
    C428     C        0.77580    0.93840    0.41333    1.000
    H255     H        0.77340    0.91010    0.38710    1.000
    C429     C        0.77493    0.04180    0.36320    1.000
    C430     C        0.50009    0.87350    0.50949    1.000
    H256     H        0.51480    0.83880    0.49710    1.000
    C431     C        0.42813    0.74701    0.68021    1.000
    H257     H        0.39700    0.74980    0.68050    1.000
    C432     C        0.42751    0.86220    0.43869    1.000
    C433     C        0.60467    0.87220    0.54576    1.000
    H258     H        0.59140    0.86710    0.51310    1.000
    C434     C        0.37839    0.81380    0.34804    1.000
    C435     C        0.45297    0.80758    0.67967    1.000
    C436     C        0.45788    0.93620    0.69360    1.000
    H259     H        0.49050    0.93310    0.70090    1.000
    C437     C        0.50224    0.95650    0.57071    1.000
    H260     H        0.51860    0.97830    0.59890    1.000
    C438     C        0.77947    0.14920    0.32348    1.000
    H261     H        0.77980    0.19740    0.32410    1.000
    C439     C        0.42995    0.79290    0.42697    1.000
    H262     H        0.44850    0.76250    0.44930    1.000
    C440     C        0.77539    0.00922    0.32111    1.000
    H263     H        0.77310    0.96130    0.31860    1.000
    C441     C        0.43756    0.99960    0.69657    1.000
    H264     H        0.45660    0.03860    0.70550    1.000
    C442     C        0.43152    0.94100    0.50633    1.000
    H265     H        0.40030    0.95260    0.49110    1.000
    C443     C        0.45595    0.08850    0.58768    1.000
    H266     H        0.48840    0.09070    0.59330    1.000
    C444     C        0.59029    0.68130    0.66236    1.000
    H267     H        0.56920    0.65150    0.64180    1.000
    C445     C        0.43127    0.02930    0.56702    1.000
    C446     C        0.45369    0.89080    0.48614    1.000
    C447     C        0.77646    0.94070    0.49896    1.000
    H268     H        0.76790    0.98720    0.49610    1.000
    C448     C        0.77919    0.04797    0.28344    1.000
    H269     H        0.77950    0.02500    0.25580    1.000
    C449     C        0.39914    0.60630    0.71534    1.000
    H270     H        0.39860    0.64130    0.73680    1.000
    C450     C        0.45520    0.97390    0.54874    1.000
    C451     C        0.39740    0.50360    0.65000    1.000
    H271     H        0.39590    0.46990    0.62700    1.000
    C452     C        0.40066    0.90650    0.40423    1.000
    H272     H        0.39880    0.95310    0.41160    1.000
    C453     C        0.42201    0.61706    0.68169    1.000
    C454     C        0.37662    0.88340    0.35919    1.000
    H273     H        0.35930    0.91430    0.33640    1.000
    C455     C        0.78498    0.90810    0.54181    1.000
    H274     H        0.78230    0.93370    0.56760    1.000
    C456     C        0.37558    0.49263    0.68503    1.000
    C457     C        0.40484    0.76840    0.38208    1.000
    H275     H        0.40580    0.72170    0.37490    1.000
    C458     C        0.38219    0.88430    0.66810    1.000
    H276     H        0.36300    0.84580    0.65780    1.000
    C459     C        0.36165    0.94770    0.67113    1.000
    H277     H        0.32900    0.95110    0.66280    1.000
    C460     C        0.37682    0.54380    0.71776    1.000
    H278     H        0.36270    0.53660    0.74160    1.000
    C461     C        0.42160    0.56480    0.64950    1.000
    H279     H        0.43770    0.57090    0.62710    1.000
    C462     C        0.77588    0.11410    0.36338    1.000
    H280     H        0.77410    0.13850    0.39000    1.000
    Co19     Co       0.79908    0.82542    0.73030    1.000
    Co20     Co       0.81106    0.80093    0.61886    1.000
    Co21     Co       0.80717    0.66786    0.70044    1.000
    N13      N        0.79699    0.84152    0.54870    1.000
    N14      N        0.78244    0.11747    0.28425    1.000
    O79      O        0.35228    0.72691    0.28840    1.000
    O80      O        0.33161    0.83754    0.27078    1.000
    O81      O        0.74855    0.75297    0.73691    1.000
    O82      O        0.73676    0.66728    0.68399    1.000
    O83      O        0.34436    0.40561    0.72374    1.000
    O84      O        0.33716    0.39453    0.64584    1.000
    O85      O        0.74381    0.87124    0.67826    1.000
    O86      O        0.74199    0.81263    0.61193    1.000
    O87      O        0.82516    0.76182    0.68740    1.000
    O88      O        0.31407    0.19790    0.59515    1.000
    O89      O        0.37933    0.25781    0.61759    1.000
    O90      O        0.32237    0.07671    0.67841    1.000
    O91      O        0.39155    0.12481    0.70814    1.000
    C463     C        0.22211    0.21228    0.70777    1.000
    C464     C        0.86692    0.57376    0.69109    1.000
    C465     C        0.10536    0.27690    0.71696    1.000
    H281     H        0.09440    0.31190    0.73260    1.000
    C466     C        0.22386    0.35012    0.63707    1.000
    C467     C        0.29815    0.30576    0.51020    1.000
    H282     H        0.30470    0.25860    0.51360    1.000
    C468     C        0.17023    0.21755    0.70058    1.000
    C469     C        0.88408    0.64136    0.59163    1.000
    C470     C        0.88880    0.50586    0.68625    1.000
    C471     C        0.85796    0.70172    0.60252    1.000
    C472     C        0.02502    0.40710    0.55111    1.000
    C473     C        0.85937    0.58140    0.57277    1.000
    H283     H        0.82710    0.57870    0.56840    1.000
    C474     C        0.94845    0.18210    0.68030    1.000
    C475     C        0.15219    0.35890    0.56604    1.000
    H284     H        0.17040    0.34390    0.54710    1.000
    C476     C        0.14543    0.39119    0.64251    1.000
    H285     H        0.15920    0.39930    0.67480    1.000
    C477     C        0.28045    0.40462    0.45961    1.000
    C478     C        0.85029    0.92535    0.68511    1.000
    C479     C        0.17279    0.36795    0.61483    1.000
    C480     C        0.15333    0.26903    0.72435    1.000
    H286     H        0.17440    0.29830    0.74530    1.000
    C481     C        0.99572    0.17840    0.68083    1.000
    H287     H        0.00970    0.13540    0.68080    1.000
    C482     C        0.85206    0.29000    0.29860    1.000
    C483     C        0.93245    0.64410    0.59995    1.000
    H288     H        0.94920    0.68330    0.61380    1.000
    C484     C        0.88269    0.52650    0.56062    1.000
    H289     H        0.86600    0.48670    0.54790    1.000
    C485     C        0.07625    0.39300    0.57342    1.000
    C486     C        0.93089    0.37678    0.68009    1.000
    C487     C        0.27488    0.50560    0.40685    1.000
    H290     H        0.27410    0.53300    0.43260    1.000
    C488     C        0.29006    0.33514    0.46561    1.000
    H291     H        0.29110    0.30800    0.43990    1.000
    C489     C        0.09745    0.40247    0.62218    1.000
    H292     H        0.07920    0.41650    0.64130    1.000
    C490     C        0.02185    0.23790    0.68144    1.000
    C491     C        0.07330    0.23238    0.68600    1.000
    C492     C        0.00030    0.30208    0.68021    1.000
    H293     H        0.01760    0.34210    0.67970    1.000
    C493     C        0.13805    0.17404    0.66891    1.000
    H294     H        0.14890    0.14020    0.65230    1.000
    C494     C        0.27580    0.43840    0.41333    1.000
    H295     H        0.27340    0.41010    0.38710    1.000
    C495     C        0.27493    0.54180    0.36320    1.000
    C496     C        0.00009    0.37350    0.50949    1.000
    H296     H        0.01480    0.33880    0.49710    1.000
    C497     C        0.92813    0.24701    0.68021    1.000
    H297     H        0.89700    0.24980    0.68050    1.000
    C498     C        0.92751    0.36220    0.43869    1.000
    C499     C        0.10467    0.37220    0.54576    1.000
    H298     H        0.09140    0.36710    0.51310    1.000
    C500     C        0.87839    0.31380    0.34804    1.000
    C501     C        0.95297    0.30758    0.67967    1.000
    C502     C        0.95788    0.43620    0.69360    1.000
    H299     H        0.99050    0.43310    0.70090    1.000
    C503     C        0.00224    0.45650    0.57071    1.000
    H300     H        0.01860    0.47830    0.59890    1.000
    C504     C        0.27947    0.64920    0.32348    1.000
    H301     H        0.27980    0.69740    0.32410    1.000
    C505     C        0.92995    0.29290    0.42697    1.000
    H302     H        0.94850    0.26250    0.44930    1.000
    C506     C        0.27539    0.50922    0.32111    1.000
    H303     H        0.27310    0.46130    0.31860    1.000
    C507     C        0.93756    0.49960    0.69657    1.000
    H304     H        0.95660    0.53860    0.70550    1.000
    C508     C        0.93152    0.44100    0.50633    1.000
    H305     H        0.90030    0.45260    0.49110    1.000
    C509     C        0.95595    0.58850    0.58768    1.000
    H306     H        0.98840    0.59070    0.59330    1.000
    C510     C        0.09029    0.18130    0.66236    1.000
    H307     H        0.06920    0.15150    0.64180    1.000
    C511     C        0.93127    0.52930    0.56702    1.000
    C512     C        0.95369    0.39080    0.48614    1.000
    C513     C        0.27646    0.44070    0.49896    1.000
    H308     H        0.26790    0.48720    0.49610    1.000
    C514     C        0.27919    0.54797    0.28344    1.000
    H309     H        0.27950    0.52500    0.25580    1.000
    C515     C        0.89914    0.10630    0.71534    1.000
    H310     H        0.89860    0.14130    0.73680    1.000
    C516     C        0.95520    0.47390    0.54874    1.000
    C517     C        0.89740    0.00360    0.65000    1.000
    H311     H        0.89590    0.96990    0.62700    1.000
    C518     C        0.90066    0.40650    0.40423    1.000
    H312     H        0.89880    0.45310    0.41160    1.000
    C519     C        0.92201    0.11706    0.68169    1.000
    C520     C        0.87662    0.38340    0.35919    1.000
    H313     H        0.85930    0.41430    0.33640    1.000
    C521     C        0.28498    0.40810    0.54181    1.000
    H314     H        0.28230    0.43370    0.56760    1.000
    C522     C        0.87558    0.99263    0.68503    1.000
    C523     C        0.90484    0.26840    0.38208    1.000
    H315     H        0.90580    0.22170    0.37490    1.000
    C524     C        0.88219    0.38430    0.66810    1.000
    H316     H        0.86300    0.34580    0.65780    1.000
    C525     C        0.86165    0.44770    0.67113    1.000
    H317     H        0.82900    0.45110    0.66280    1.000
    C526     C        0.87682    0.04380    0.71776    1.000
    H318     H        0.86270    0.03660    0.74160    1.000
    C527     C        0.92160    0.06480    0.64950    1.000
    H319     H        0.93770    0.07090    0.62710    1.000
    C528     C        0.27588    0.61410    0.36338    1.000
    H320     H        0.27410    0.63850    0.39000    1.000
    Co22     Co       0.29908    0.32542    0.73030    1.000
    Co23     Co       0.31106    0.30093    0.61886    1.000
    Co24     Co       0.30717    0.16786    0.70044    1.000
    N15      N        0.29699    0.34152    0.54870    1.000
    N16      N        0.28244    0.61747    0.28425    1.000
    O92      O        0.85228    0.22691    0.28840    1.000
    O93      O        0.83161    0.33754    0.27078    1.000
    O94      O        0.24855    0.25297    0.73691    1.000
    O95      O        0.23676    0.16728    0.68399    1.000
    O96      O        0.84436    0.90561    0.72374    1.000
    O97      O        0.83716    0.89453    0.64584    1.000
    O98      O        0.24381    0.37124    0.67826    1.000
    O99      O        0.24199    0.31263    0.61193    1.000
    O100     O        0.32516    0.26182    0.68740    1.000
    O101     O        0.81407    0.69790    0.59515    1.000
    O102     O        0.87933    0.75781    0.61759    1.000
    O103     O        0.82237    0.57671    0.67841    1.000
    O104     O        0.89155    0.62481    0.70814    1.000
