# CIF file generated by openbabel 3.1.0, see https://openbabel.org
data_I
_chemical_name_common 'image0'
_cell_length_a 8.4612
_cell_length_b 13.1272
_cell_length_c 9.4855
_cell_angle_alpha 90
_cell_angle_beta 94.652
_cell_angle_gamma 90
_space_group_name_H-M_alt 'P 1'
_space_group_name_Hall 'P 1'
loop_
    _symmetry_equiv_pos_as_xyz
    x,y,z
loop_
    _atom_site_label
    _atom_site_type_symbol
    _atom_site_fract_x
    _atom_site_fract_y
    _atom_site_fract_z
    _atom_site_occupancy
    Gd1      Gd       0.96108    0.26866    0.50806    1.000
    O1       O        0.15870    0.13820    0.61090    1.000
    O2       O        0.21720    0.21250    0.41620    1.000
    O3       O        0.35030    0.11390    0.15790    1.000
    O4       O        0.16800    0.01080    0.23200    1.000
    O5       O        0.46320    0.20570    0.74890    1.000
    C1       C        0.24660    0.14750    0.51130    1.000
    C2       C        0.38190    0.07430    0.50220    1.000
    C3       C        0.47600    0.04910    0.62630    1.000
    C4       C        0.46090    0.11110    0.75660    1.000
    C5       C        0.40780    0.02620    0.37580    1.000
    C6       C        0.30080    0.05220    0.24330    1.000
    O6       O        0.45050    0.06770    0.87320    1.000
    Gd2      Gd       0.53892    0.76866    0.99194    1.000
    O7       O        0.34130    0.63820    0.88910    1.000
    O8       O        0.28280    0.71250    0.08380    1.000
    O9       O        0.14970    0.61390    0.34210    1.000
    O10      O        0.33200    0.51080    0.26800    1.000
    O11      O        0.03680    0.70570    0.75110    1.000
    C7       C        0.25340    0.64750    0.98870    1.000
    C8       C        0.11810    0.57430    0.99780    1.000
    C9       C        0.02400    0.54910    0.87370    1.000
    C10      C        0.03910    0.61110    0.74340    1.000
    C11      C        0.09220    0.52620    0.12420    1.000
    C12      C        0.19920    0.55220    0.25670    1.000
    O12      O        0.04950    0.56770    0.62680    1.000
    Gd3      Gd       0.03892    0.73134    0.49194    1.000
    O13      O        0.84130    0.86180    0.38910    1.000
    O14      O        0.78280    0.78750    0.58380    1.000
    O15      O        0.64970    0.88610    0.84210    1.000
    O16      O        0.83200    0.98920    0.76800    1.000
    O17      O        0.53680    0.79430    0.25110    1.000
    C13      C        0.75340    0.85250    0.48870    1.000
    C14      C        0.61810    0.92570    0.49780    1.000
    C15      C        0.52400    0.95090    0.37370    1.000
    C16      C        0.53910    0.88890    0.24340    1.000
    C17      C        0.59220    0.97380    0.62420    1.000
    C18      C        0.69920    0.94780    0.75670    1.000
    O18      O        0.54950    0.93230    0.12680    1.000
    Gd4      Gd       0.46108    0.23134    0.00806    1.000
    O19      O        0.65870    0.36180    0.11090    1.000
    O20      O        0.71720    0.28750    0.91620    1.000
    O21      O        0.85030    0.38610    0.65790    1.000
    O22      O        0.66800    0.48920    0.73200    1.000
    O23      O        0.96320    0.29430    0.24890    1.000
    C19      C        0.74660    0.35250    0.01130    1.000
    C20      C        0.88190    0.42570    0.00220    1.000
    C21      C        0.97600    0.45090    0.12630    1.000
    C22      C        0.96090    0.38890    0.25660    1.000
    C23      C        0.90780    0.47380    0.87580    1.000
    C24      C        0.80080    0.44780    0.74330    1.000
    O24      O        0.95050    0.43230    0.37320    1.000
