# CIF file generated by openbabel 3.1.0, see https://openbabel.org
data_I
_chemical_name_common 'image0'
_cell_length_a 12.547
_cell_length_b 12.502
_cell_length_c 8.201
_cell_angle_alpha 75.93
_cell_angle_beta 82.21
_cell_angle_gamma 76.05
_space_group_name_H-M_alt 'P 1'
_space_group_name_Hall 'P 1'
loop_
    _symmetry_equiv_pos_as_xyz
    x,y,z
loop_
    _atom_site_label
    _atom_site_type_symbol
    _atom_site_fract_x
    _atom_site_fract_y
    _atom_site_fract_z
    _atom_site_occupancy
    Cu1      Cu       0.37121    0.49041    0.16700    1.000
    Cu2      Cu       0.21895    0.33830    0.27180    1.000
    Cu3      Cu       0.39090    0.19992    0.15100    1.000
    Cu4      Cu       0.51130    0.66440    0.99770    1.000
    Cu5      Cu       0.53030    0.67090    0.10120    1.000
    Cu6      Cu       0.44037    0.15385    0.50840    1.000
    Cu7      Cu       0.50579    0.91292    0.16330    1.000
    Cu8      Cu       0.31959    0.26841    0.76280    1.000
    Cu9      Cu       0.41683    0.41641    0.58220    1.000
    Cu10     Cu       0.11020    0.43120    0.57240    1.000
    Cl1      Cl       0.54540    0.08300    0.28970    1.000
    Cl2      Cl       0.34740    0.68470    0.07180    1.000
    Cl3      Cl       0.35280    0.05080    0.04560    1.000
    Cl4      Cl       0.53350    0.44640    0.29850    1.000
    Cl5      Cl       0.14210    0.29850    0.81860    1.000
    Cl6      Cl       0.26460    0.16610    0.45010    1.000
    Cl7      Cl       0.03530    0.39860    0.34810    1.000
    Cl8      Cl       0.25390    0.52050    0.47040    1.000
    O1       O        0.11270    0.61010    0.04310    1.000
    O2       O        0.74590    0.19510    0.62480    1.000
    C1       C        0.33700    0.36290    0.06690    1.000
    C2       C        0.25810    0.44730    0.05090    1.000
    C3       C        0.17360    0.53530    0.95600    1.000
    C4       C        0.46970    0.24900    0.67300    1.000
    C5       C        0.55650    0.18760    0.62370    1.000
    C6       C        0.67620    0.16820    0.54990    1.000
    H1       H        0.21400    0.58100    0.85200    1.000
    H2       H        0.12400    0.50100    0.90800    1.000
    H3       H        0.69900    0.08700    0.54200    1.000
    H4       H        0.67400    0.21500    0.42700    1.000
    H5       H        0.68700    0.23000    0.70500    1.000
    H6       H        0.09800    0.61000    0.19200    1.000
    Cu11     Cu       0.62879    0.50959    0.83300    1.000
    Cu12     Cu       0.78105    0.66170    0.72820    1.000
    Cu13     Cu       0.60910    0.80008    0.84900    1.000
    Cu14     Cu       0.48870    0.33560    0.00230    1.000
    Cu15     Cu       0.46970    0.32910    0.89880    1.000
    Cu16     Cu       0.55963    0.84615    0.49160    1.000
    Cu17     Cu       0.49421    0.08708    0.83670    1.000
    Cu18     Cu       0.68041    0.73159    0.23720    1.000
    Cu19     Cu       0.58317    0.58359    0.41780    1.000
    Cu20     Cu       0.88980    0.56880    0.42760    1.000
    Cl9      Cl       0.45460    0.91700    0.71030    1.000
    Cl10     Cl       0.65260    0.31530    0.92820    1.000
    Cl11     Cl       0.64720    0.94920    0.95440    1.000
    Cl12     Cl       0.46650    0.55360    0.70150    1.000
    Cl13     Cl       0.85790    0.70150    0.18140    1.000
    Cl14     Cl       0.73540    0.83390    0.54990    1.000
    Cl15     Cl       0.96470    0.60140    0.65190    1.000
    Cl16     Cl       0.74610    0.47950    0.52960    1.000
    O3       O        0.88730    0.38990    0.95690    1.000
    O4       O        0.25410    0.80490    0.37520    1.000
    C7       C        0.66300    0.63710    0.93310    1.000
    C8       C        0.74190    0.55270    0.94910    1.000
    C9       C        0.82640    0.46470    0.04400    1.000
    C10      C        0.53030    0.75100    0.32700    1.000
    C11      C        0.44350    0.81240    0.37630    1.000
    C12      C        0.32380    0.83180    0.45010    1.000
    H7       H        0.78600    0.41900    0.14800    1.000
    H8       H        0.87600    0.49900    0.09200    1.000
    H9       H        0.30100    0.91300    0.45800    1.000
    H10      H        0.32600    0.78500    0.57300    1.000
    H11      H        0.31300    0.77000    0.29500    1.000
    H12      H        0.90200    0.39000    0.80800    1.000
