# CIF file generated by openbabel 3.1.0, see https://openbabel.org
data_I
_chemical_name_common 'OQETEK_clean'
_cell_length_a 14.333
_cell_length_b 14.642
_cell_length_c 14.642
_cell_angle_alpha 90
_cell_angle_beta 90
_cell_angle_gamma 90
_space_group_name_H-M_alt 'P 1'
_space_group_name_Hall 'P 1'
loop_
    _symmetry_equiv_pos_as_xyz
    x,y,z
loop_
    _atom_site_label
    _atom_site_type_symbol
    _atom_site_fract_x
    _atom_site_fract_y
    _atom_site_fract_z
    _atom_site_occupancy
    Yb1      Yb       0.51506    0.36654    0.58641    1.000
    Yb2      Yb       0.01506    0.63346    0.41359    1.000
    Yb3      Yb       0.76506    0.41359    0.36654    1.000
    Yb4      Yb       0.26506    0.58641    0.63346    1.000
    H1       H        0.89570    0.48140    0.55540    1.000
    H2       H        0.00810    0.51500    0.80340    1.000
    H3       H        0.75840    0.39020    0.77470    1.000
    H4       H        0.82530    0.31100    0.90530    1.000
    H5       H        0.79880    0.30240    0.05980    1.000
    H6       H        0.88140    0.56180    0.09250    1.000
    H7       H        0.91580    0.56760    0.93530    1.000
    H8       H        0.39570    0.51860    0.44460    1.000
    H9       H        0.50810    0.48500    0.19660    1.000
    H10      H        0.25840    0.60980    0.22530    1.000
    H11      H        0.32530    0.68900    0.09470    1.000
    H12      H        0.29880    0.69760    0.94020    1.000
    H13      H        0.38140    0.43820    0.90750    1.000
    H14      H        0.41580    0.43240    0.06470    1.000
    H15      H        0.14570    0.44460    0.48140    1.000
    H16      H        0.25810    0.19660    0.51500    1.000
    H17      H        0.00840    0.22530    0.39020    1.000
    H18      H        0.07530    0.09470    0.31100    1.000
    H19      H        0.04880    0.94020    0.30240    1.000
    H20      H        0.13140    0.90750    0.56180    1.000
    H21      H        0.16580    0.06470    0.56760    1.000
    H22      H        0.64570    0.55540    0.51860    1.000
    H23      H        0.75810    0.80340    0.48500    1.000
    H24      H        0.50840    0.77470    0.60980    1.000
    H25      H        0.57530    0.90530    0.68900    1.000
    H26      H        0.54880    0.05980    0.69760    1.000
    H27      H        0.63140    0.09250    0.43820    1.000
    H28      H        0.66580    0.93530    0.43240    1.000
    C1       C        0.81620    0.42880    0.65530    1.000
    C2       C        0.89260    0.47190    0.61810    1.000
    C3       C        0.96500    0.50110    0.67360    1.000
    C4       C        0.96030    0.49250    0.76690    1.000
    C5       C        0.88270    0.44950    0.80700    1.000
    C6       C        0.81050    0.41830    0.74940    1.000
    C7       C        0.73750    0.39920    0.59910    1.000
    C8       C        0.05040    0.54370    0.63030    1.000
    C9       C        0.87280    0.44070    0.90650    1.000
    C10      C        0.83770    0.36090    0.94270    1.000
    C11      C        0.82140    0.35640    0.03470    1.000
    C12      C        0.83780    0.43060    0.09110    1.000
    C13      C        0.87160    0.51120    0.05540    1.000
    C14      C        0.89080    0.51480    0.96070    1.000
    C15      C        0.81210    0.42390    0.18910    1.000
    C16      C        0.31620    0.57120    0.34470    1.000
    C17      C        0.39260    0.52810    0.38190    1.000
    C18      C        0.46500    0.49890    0.32640    1.000
    C19      C        0.46030    0.50750    0.23310    1.000
    C20      C        0.38270    0.55050    0.19300    1.000
    C21      C        0.31050    0.58170    0.25060    1.000
    C22      C        0.23750    0.60080    0.40090    1.000
    C23      C        0.55040    0.45630    0.36970    1.000
    C24      C        0.37280    0.55930    0.09350    1.000
    C25      C        0.33770    0.63910    0.05730    1.000
    C26      C        0.32140    0.64360    0.96530    1.000
    C27      C        0.33780    0.56940    0.90890    1.000
    C28      C        0.37160    0.48880    0.94460    1.000
    C29      C        0.39080    0.48520    0.03930    1.000
    C30      C        0.31210    0.57610    0.81090    1.000
    C31      C        0.06620    0.34470    0.42880    1.000
    C32      C        0.14260    0.38190    0.47190    1.000
    C33      C        0.21500    0.32640    0.50110    1.000
    C34      C        0.21030    0.23310    0.49250    1.000
    C35      C        0.13270    0.19300    0.44950    1.000
    C36      C        0.06050    0.25060    0.41830    1.000
    C37      C        0.98750    0.40090    0.39920    1.000
    C38      C        0.30040    0.36970    0.54370    1.000
    C39      C        0.12280    0.09350    0.44070    1.000
    C40      C        0.08770    0.05730    0.36090    1.000
    C41      C        0.07140    0.96530    0.35640    1.000
    C42      C        0.08780    0.90890    0.43060    1.000
    C43      C        0.12160    0.94460    0.51120    1.000
    C44      C        0.14080    0.03930    0.51480    1.000
    C45      C        0.06210    0.81090    0.42390    1.000
    C46      C        0.56620    0.65530    0.57120    1.000
    C47      C        0.64260    0.61810    0.52810    1.000
    C48      C        0.71500    0.67360    0.49890    1.000
    C49      C        0.71030    0.76690    0.50750    1.000
    C50      C        0.63270    0.80700    0.55050    1.000
    C51      C        0.56050    0.74940    0.58170    1.000
    C52      C        0.48750    0.59910    0.60080    1.000
    C53      C        0.80040    0.63030    0.45630    1.000
    C54      C        0.62280    0.90650    0.55930    1.000
    C55      C        0.58770    0.94270    0.63910    1.000
    C56      C        0.57140    0.03470    0.64360    1.000
    C57      C        0.58780    0.09110    0.56940    1.000
    C58      C        0.62160    0.05540    0.48880    1.000
    C59      C        0.64080    0.96070    0.48520    1.000
    C60      C        0.56210    0.18910    0.57610    1.000
    O1       O        0.66160    0.38580    0.63770    1.000
    O2       O        0.74860    0.39170    0.51430    1.000
    O3       O        0.12400    0.54090    0.67270    1.000
    O4       O        0.04010    0.57860    0.55180    1.000
    O5       O        0.78170    0.35080    0.22030    1.000
    O6       O        0.82590    0.49170    0.23930    1.000
    O7       O        0.16160    0.61420    0.36230    1.000
    O8       O        0.24860    0.60830    0.48570    1.000
    O9       O        0.62400    0.45910    0.32730    1.000
    O10      O        0.54010    0.42140    0.44820    1.000
    O11      O        0.28170    0.64920    0.77970    1.000
    O12      O        0.32590    0.50830    0.76070    1.000
    O13      O        0.91160    0.36230    0.38580    1.000
    O14      O        0.99860    0.48570    0.39170    1.000
    O15      O        0.37400    0.32730    0.54090    1.000
    O16      O        0.29010    0.44820    0.57860    1.000
    O17      O        0.03170    0.77970    0.35080    1.000
    O18      O        0.07590    0.76070    0.49170    1.000
    O19      O        0.41160    0.63770    0.61420    1.000
    O20      O        0.49860    0.51430    0.60830    1.000
    O21      O        0.87400    0.67270    0.45910    1.000
    O22      O        0.79010    0.55180    0.42140    1.000
    O23      O        0.53170    0.22030    0.64920    1.000
    O24      O        0.57590    0.23930    0.50830    1.000
