# CIF file generated by openbabel 3.1.0, see https://openbabel.org
data_I
_chemical_name_common 'image0'
_cell_length_a 21.9504
_cell_length_b 16.7095
_cell_length_c 25.6128
_cell_angle_alpha 90
_cell_angle_beta 115.366
_cell_angle_gamma 90
_space_group_name_H-M_alt 'P 1'
_space_group_name_Hall 'P 1'
loop_
    _symmetry_equiv_pos_as_xyz
    x,y,z
loop_
    _atom_site_label
    _atom_site_type_symbol
    _atom_site_fract_x
    _atom_site_fract_y
    _atom_site_fract_z
    _atom_site_occupancy
    Ag1      Ag       0.27363    0.20879    0.86794    1.000
    Ag2      Ag       0.79557    0.50313    0.36744    1.000
    C1       C        0.65310    0.71980    0.50030    1.000
    C2       C        0.42220    0.89950    0.39190    1.000
    H1       H        0.40140    0.90250    0.35180    1.000
    C3       C        0.62760    0.56110    0.91060    1.000
    H2       H        0.58490    0.53970    0.88920    1.000
    C4       C        0.62750    0.50670    0.00170    1.000
    C5       C        0.57460    0.80160    0.50600    1.000
    C6       C        0.77070    0.59350    0.46460    1.000
    H3       H        0.81080    0.56590    0.48480    1.000
    C7       C        0.48190    0.88730    0.50870    1.000
    H4       H        0.50130    0.88420    0.54880    1.000
    C8       C        0.40290    0.31590    0.88880    1.000
    H5       H        0.38470    0.30950    0.84890    1.000
    C9       C        0.74280    0.63390    0.49560    1.000
    H6       H        0.76340    0.63310    0.53580    1.000
    C10      C        0.65890    0.55150    0.96900    1.000
    C11      C        0.72240    0.58510    0.99820    1.000
    H7       H        0.74530    0.58040    0.03810    1.000
    C12      C        0.68360    0.67590    0.46630    1.000
    C13      C        0.62690    0.47530    0.08720    1.000
    C14      C        0.65810    0.48580    0.15050    1.000
    C15      C        0.48190    0.85840    0.41800    1.000
    H8       H        0.50160    0.83620    0.39570    1.000
    C16      C        0.54960    0.42250    0.00460    1.000
    C17      C        0.68990    0.74200    0.65150    1.000
    C18      C        0.45720    0.33410    0.00530    1.000
    H9       H        0.47510    0.33760    0.04540    1.000
    C19      C        0.75100    0.62480    0.96810    1.000
    H10      H        0.79370    0.64650    0.98860    1.000
    C20      C        0.46070    0.36090    0.91490    1.000
    H11      H        0.48090    0.38330    0.89300    1.000
    C21      C        0.75180    0.70710    0.68000    1.000
    H12      H        0.77580    0.68950    0.65980    1.000
    C22      C        0.66050    0.60300    0.88420    1.000
    H13      H        0.63820    0.60980    0.84440    1.000
    C23      C        0.77830    0.69820    0.73960    1.000
    H14      H        0.82020    0.67380    0.75860    1.000
    C24      C        0.39900    0.29090    0.97430    1.000
    H15      H        0.37770    0.26710    0.99490    1.000
    C25      C        0.65610    0.76770    0.68330    1.000
    H16      H        0.61400    0.79180    0.66540    1.000
    C26      C        0.65830    0.75150    0.58720    1.000
    C27      C        0.51240    0.85000    0.47690    1.000
    C28      C        0.65500    0.67510    0.40700    1.000
    H17      H        0.61580    0.70390    0.38590    1.000
    C29      C        0.68640    0.75670    0.74190    1.000
    H18      H        0.66330    0.77400    0.76290    1.000
    C30      C        0.71240    0.53700    0.17730    1.000
    H19      H        0.72900    0.56670    0.15550    1.000
    C31      C        0.48850    0.37250    0.97450    1.000
    C32      C        0.42210    0.92910    0.47900    1.000
    H20      H        0.40190    0.95360    0.50020    1.000
    C33      C        0.74150    0.54330    0.23660    1.000
    H21      H        0.77760    0.57820    0.25400    1.000
    C34      C        0.63300    0.44600    0.18440    1.000
    H22      H        0.59440    0.41470    0.16810    1.000
    C35      C        0.66770    0.45460    0.24380    1.000
    H23      H        0.65260    0.42480    0.26670    1.000
    C36      C        0.68530    0.63100    0.37900    1.000
    H24      H        0.66420    0.62860    0.33890    1.000
    N1       N        0.37150    0.28090    0.91750    1.000
    N2       N        0.72160    0.63450    0.91110    1.000
    N3       N        0.72030    0.50140    0.27060    1.000
    N4       N        0.57390    0.46100    0.97210    1.000
    N5       N        0.65570    0.51710    0.05830    1.000
    N6       N        0.57490    0.42720    0.06260    1.000
    N7       N        0.74360    0.59140    0.40680    1.000
    N8       N        0.74630    0.72320    0.77100    1.000
    N9       N        0.39220    0.93580    0.42200    1.000
    N10      N        0.59730    0.76110    0.47290    1.000
    N11      N        0.68580    0.71290    0.55830    1.000
    N12      N        0.60350    0.79880    0.56390    1.000
    Ag3      Ag       0.77363    0.70879    0.86794    1.000
    Ag4      Ag       0.29557    0.00313    0.36744    1.000
    C37      C        0.15310    0.21980    0.50030    1.000
    C38      C        0.92220    0.39950    0.39190    1.000
    H25      H        0.90140    0.40250    0.35180    1.000
    C39      C        0.12760    0.06110    0.91060    1.000
    H26      H        0.08490    0.03970    0.88920    1.000
    C40      C        0.12750    0.00670    0.00170    1.000
    C41      C        0.07460    0.30160    0.50600    1.000
    C42      C        0.27070    0.09350    0.46460    1.000
    H27      H        0.31080    0.06590    0.48480    1.000
    C43      C        0.98190    0.38730    0.50870    1.000
    H28      H        0.00130    0.38420    0.54880    1.000
    C44      C        0.90290    0.81590    0.88880    1.000
    H29      H        0.88470    0.80950    0.84890    1.000
    C45      C        0.24280    0.13390    0.49560    1.000
    H30      H        0.26340    0.13310    0.53580    1.000
    C46      C        0.15890    0.05150    0.96900    1.000
    C47      C        0.22240    0.08510    0.99820    1.000
    H31      H        0.24530    0.08040    0.03810    1.000
    C48      C        0.18360    0.17590    0.46630    1.000
    C49      C        0.12690    0.97530    0.08720    1.000
    C50      C        0.15810    0.98580    0.15050    1.000
    C51      C        0.98190    0.35840    0.41800    1.000
    H32      H        0.00160    0.33620    0.39570    1.000
    C52      C        0.04960    0.92250    0.00460    1.000
    C53      C        0.18990    0.24200    0.65150    1.000
    C54      C        0.95720    0.83410    0.00530    1.000
    H33      H        0.97510    0.83760    0.04540    1.000
    C55      C        0.25100    0.12480    0.96810    1.000
    H34      H        0.29370    0.14650    0.98860    1.000
    C56      C        0.96070    0.86090    0.91490    1.000
    H35      H        0.98090    0.88330    0.89300    1.000
    C57      C        0.25180    0.20710    0.68000    1.000
    H36      H        0.27580    0.18950    0.65980    1.000
    C58      C        0.16050    0.10300    0.88420    1.000
    H37      H        0.13820    0.10980    0.84440    1.000
    C59      C        0.27830    0.19820    0.73960    1.000
    H38      H        0.32020    0.17380    0.75860    1.000
    C60      C        0.89900    0.79090    0.97430    1.000
    H39      H        0.87770    0.76710    0.99490    1.000
    C61      C        0.15610    0.26770    0.68330    1.000
    H40      H        0.11400    0.29180    0.66540    1.000
    C62      C        0.15830    0.25150    0.58720    1.000
    C63      C        0.01240    0.35000    0.47690    1.000
    C64      C        0.15500    0.17510    0.40700    1.000
    H41      H        0.11580    0.20390    0.38590    1.000
    C65      C        0.18640    0.25670    0.74190    1.000
    H42      H        0.16330    0.27400    0.76290    1.000
    C66      C        0.21240    0.03700    0.17730    1.000
    H43      H        0.22900    0.06670    0.15550    1.000
    C67      C        0.98850    0.87250    0.97450    1.000
    C68      C        0.92210    0.42910    0.47900    1.000
    H44      H        0.90190    0.45360    0.50020    1.000
    C69      C        0.24150    0.04330    0.23660    1.000
    H45      H        0.27760    0.07820    0.25400    1.000
    C70      C        0.13300    0.94600    0.18440    1.000
    H46      H        0.09440    0.91470    0.16810    1.000
    C71      C        0.16770    0.95460    0.24380    1.000
    H47      H        0.15260    0.92480    0.26670    1.000
    C72      C        0.18530    0.13100    0.37900    1.000
    H48      H        0.16420    0.12860    0.33890    1.000
    N13      N        0.87150    0.78090    0.91750    1.000
    N14      N        0.22160    0.13450    0.91110    1.000
    N15      N        0.22030    0.00140    0.27060    1.000
    N16      N        0.07390    0.96100    0.97210    1.000
    N17      N        0.15570    0.01710    0.05830    1.000
    N18      N        0.07490    0.92720    0.06260    1.000
    N19      N        0.24360    0.09140    0.40680    1.000
    N20      N        0.24630    0.22320    0.77100    1.000
    N21      N        0.89220    0.43580    0.42200    1.000
    N22      N        0.09730    0.26110    0.47290    1.000
    N23      N        0.18580    0.21290    0.55830    1.000
    N24      N        0.10350    0.29880    0.56390    1.000
    Ag5      Ag       0.72637    0.20879    0.63206    1.000
    Ag6      Ag       0.20443    0.50313    0.13256    1.000
    C73      C        0.34690    0.71980    0.99970    1.000
    C74      C        0.57780    0.89950    0.10810    1.000
    H49      H        0.59860    0.90250    0.14820    1.000
    C75      C        0.37240    0.56110    0.58940    1.000
    H50      H        0.41510    0.53970    0.61080    1.000
    C76      C        0.37250    0.50670    0.49830    1.000
    C77      C        0.42540    0.80160    0.99400    1.000
    C78      C        0.22930    0.59350    0.03540    1.000
    H51      H        0.18920    0.56590    0.01520    1.000
    C79      C        0.51810    0.88730    0.99130    1.000
    H52      H        0.49870    0.88420    0.95120    1.000
    C80      C        0.59710    0.31590    0.61120    1.000
    H53      H        0.61530    0.30950    0.65110    1.000
    C81      C        0.25720    0.63390    0.00440    1.000
    H54      H        0.23660    0.63310    0.96420    1.000
    C82      C        0.34110    0.55150    0.53100    1.000
    C83      C        0.27760    0.58510    0.50180    1.000
    H55      H        0.25470    0.58040    0.46190    1.000
    C84      C        0.31640    0.67590    0.03370    1.000
    C85      C        0.37310    0.47530    0.41280    1.000
    C86      C        0.34190    0.48580    0.34950    1.000
    C87      C        0.51810    0.85840    0.08200    1.000
    H56      H        0.49840    0.83620    0.10430    1.000
    C88      C        0.45040    0.42250    0.49540    1.000
    C89      C        0.31010    0.74200    0.84850    1.000
    C90      C        0.54280    0.33410    0.49470    1.000
    H57      H        0.52490    0.33760    0.45460    1.000
    C91      C        0.24900    0.62480    0.53190    1.000
    H58      H        0.20630    0.64650    0.51140    1.000
    C92      C        0.53930    0.36090    0.58510    1.000
    H59      H        0.51910    0.38330    0.60700    1.000
    C93      C        0.24820    0.70710    0.82000    1.000
    H60      H        0.22420    0.68950    0.84020    1.000
    C94      C        0.33950    0.60300    0.61580    1.000
    H61      H        0.36180    0.60980    0.65560    1.000
    C95      C        0.22170    0.69820    0.76040    1.000
    H62      H        0.17980    0.67380    0.74140    1.000
    C96      C        0.60100    0.29090    0.52570    1.000
    H63      H        0.62230    0.26710    0.50510    1.000
    C97      C        0.34390    0.76770    0.81670    1.000
    H64      H        0.38600    0.79180    0.83460    1.000
    C98      C        0.34170    0.75150    0.91280    1.000
    C99      C        0.48760    0.85000    0.02310    1.000
    C100     C        0.34500    0.67510    0.09300    1.000
    H65      H        0.38420    0.70390    0.11410    1.000
    C101     C        0.31360    0.75670    0.75810    1.000
    H66      H        0.33670    0.77400    0.73710    1.000
    C102     C        0.28760    0.53700    0.32270    1.000
    H67      H        0.27100    0.56670    0.34450    1.000
    C103     C        0.51150    0.37250    0.52550    1.000
    C104     C        0.57790    0.92910    0.02100    1.000
    H68      H        0.59810    0.95360    0.99980    1.000
    C105     C        0.25850    0.54330    0.26340    1.000
    H69      H        0.22240    0.57820    0.24600    1.000
    C106     C        0.36700    0.44600    0.31560    1.000
    H70      H        0.40560    0.41470    0.33190    1.000
    C107     C        0.33230    0.45460    0.25620    1.000
    H71      H        0.34740    0.42480    0.23330    1.000
    C108     C        0.31470    0.63100    0.12100    1.000
    H72      H        0.33580    0.62860    0.16110    1.000
    N25      N        0.62850    0.28090    0.58250    1.000
    N26      N        0.27840    0.63450    0.58890    1.000
    N27      N        0.27970    0.50140    0.22940    1.000
    N28      N        0.42610    0.46100    0.52790    1.000
    N29      N        0.34430    0.51710    0.44170    1.000
    N30      N        0.42510    0.42720    0.43740    1.000
    N31      N        0.25640    0.59140    0.09320    1.000
    N32      N        0.25370    0.72320    0.72900    1.000
    N33      N        0.60780    0.93580    0.07800    1.000
    N34      N        0.40270    0.76110    0.02710    1.000
    N35      N        0.31420    0.71290    0.94170    1.000
    N36      N        0.39650    0.79880    0.93610    1.000
    Ag7      Ag       0.22637    0.70879    0.63206    1.000
    Ag8      Ag       0.70443    0.00313    0.13256    1.000
    C109     C        0.84690    0.21980    0.99970    1.000
    C110     C        0.07780    0.39950    0.10810    1.000
    H73      H        0.09860    0.40250    0.14820    1.000
    C111     C        0.87240    0.06110    0.58940    1.000
    H74      H        0.91510    0.03970    0.61080    1.000
    C112     C        0.87250    0.00670    0.49830    1.000
    C113     C        0.92540    0.30160    0.99400    1.000
    C114     C        0.72930    0.09350    0.03540    1.000
    H75      H        0.68920    0.06590    0.01520    1.000
    C115     C        0.01810    0.38730    0.99130    1.000
    H76      H        0.99870    0.38420    0.95120    1.000
    C116     C        0.09710    0.81590    0.61120    1.000
    H77      H        0.11530    0.80950    0.65110    1.000
    C117     C        0.75720    0.13390    0.00440    1.000
    H78      H        0.73660    0.13310    0.96420    1.000
    C118     C        0.84110    0.05150    0.53100    1.000
    C119     C        0.77760    0.08510    0.50180    1.000
    H79      H        0.75470    0.08040    0.46190    1.000
    C120     C        0.81640    0.17590    0.03370    1.000
    C121     C        0.87310    0.97530    0.41280    1.000
    C122     C        0.84190    0.98580    0.34950    1.000
    C123     C        0.01810    0.35840    0.08200    1.000
    H80      H        0.99840    0.33620    0.10430    1.000
    C124     C        0.95040    0.92250    0.49540    1.000
    C125     C        0.81010    0.24200    0.84850    1.000
    C126     C        0.04280    0.83410    0.49470    1.000
    H81      H        0.02490    0.83760    0.45460    1.000
    C127     C        0.74900    0.12480    0.53190    1.000
    H82      H        0.70630    0.14650    0.51140    1.000
    C128     C        0.03930    0.86090    0.58510    1.000
    H83      H        0.01910    0.88330    0.60700    1.000
    C129     C        0.74820    0.20710    0.82000    1.000
    H84      H        0.72420    0.18950    0.84020    1.000
    C130     C        0.83950    0.10300    0.61580    1.000
    H85      H        0.86180    0.10980    0.65560    1.000
    C131     C        0.72170    0.19820    0.76040    1.000
    H86      H        0.67980    0.17380    0.74140    1.000
    C132     C        0.10100    0.79090    0.52570    1.000
    H87      H        0.12230    0.76710    0.50510    1.000
    C133     C        0.84390    0.26770    0.81670    1.000
    H88      H        0.88600    0.29180    0.83460    1.000
    C134     C        0.84170    0.25150    0.91280    1.000
    C135     C        0.98760    0.35000    0.02310    1.000
    C136     C        0.84500    0.17510    0.09300    1.000
    H89      H        0.88420    0.20390    0.11410    1.000
    C137     C        0.81360    0.25670    0.75810    1.000
    H90      H        0.83670    0.27400    0.73710    1.000
    C138     C        0.78760    0.03700    0.32270    1.000
    H91      H        0.77100    0.06670    0.34450    1.000
    C139     C        0.01150    0.87250    0.52550    1.000
    C140     C        0.07790    0.42910    0.02100    1.000
    H92      H        0.09810    0.45360    0.99980    1.000
    C141     C        0.75850    0.04330    0.26340    1.000
    H93      H        0.72240    0.07820    0.24600    1.000
    C142     C        0.86700    0.94600    0.31560    1.000
    H94      H        0.90560    0.91470    0.33190    1.000
    C143     C        0.83230    0.95460    0.25620    1.000
    H95      H        0.84740    0.92480    0.23330    1.000
    C144     C        0.81470    0.13100    0.12100    1.000
    H96      H        0.83580    0.12860    0.16110    1.000
    N37      N        0.12850    0.78090    0.58250    1.000
    N38      N        0.77840    0.13450    0.58890    1.000
    N39      N        0.77970    0.00140    0.22940    1.000
    N40      N        0.92610    0.96100    0.52790    1.000
    N41      N        0.84430    0.01710    0.44170    1.000
    N42      N        0.92510    0.92720    0.43740    1.000
    N43      N        0.75640    0.09140    0.09320    1.000
    N44      N        0.75370    0.22320    0.72900    1.000
    N45      N        0.10780    0.43580    0.07800    1.000
    N46      N        0.90270    0.26110    0.02710    1.000
    N47      N        0.81420    0.21290    0.94170    1.000
    N48      N        0.89650    0.29880    0.93610    1.000
    Ag9      Ag       0.72637    0.79121    0.13206    1.000
    Ag10     Ag       0.20443    0.49687    0.63256    1.000
    C145     C        0.34690    0.28020    0.49970    1.000
    C146     C        0.57780    0.10050    0.60810    1.000
    H97      H        0.59860    0.09750    0.64820    1.000
    C147     C        0.37240    0.43890    0.08940    1.000
    H98      H        0.41510    0.46030    0.11080    1.000
    C148     C        0.37250    0.49330    0.99830    1.000
    C149     C        0.42540    0.19840    0.49400    1.000
    C150     C        0.22930    0.40650    0.53540    1.000
    H99      H        0.18920    0.43410    0.51520    1.000
    C151     C        0.51810    0.11270    0.49130    1.000
    H100     H        0.49870    0.11580    0.45120    1.000
    C152     C        0.59710    0.68410    0.11120    1.000
    H101     H        0.61530    0.69050    0.15110    1.000
    C153     C        0.25720    0.36610    0.50440    1.000
    H102     H        0.23660    0.36690    0.46420    1.000
    C154     C        0.34110    0.44850    0.03100    1.000
    C155     C        0.27760    0.41490    0.00180    1.000
    H103     H        0.25470    0.41960    0.96190    1.000
    C156     C        0.31640    0.32410    0.53370    1.000
    C157     C        0.37310    0.52470    0.91280    1.000
    C158     C        0.34190    0.51420    0.84950    1.000
    C159     C        0.51810    0.14160    0.58200    1.000
    H104     H        0.49840    0.16380    0.60430    1.000
    C160     C        0.45040    0.57750    0.99540    1.000
    C161     C        0.31010    0.25800    0.34850    1.000
    C162     C        0.54280    0.66590    0.99470    1.000
    H105     H        0.52490    0.66240    0.95460    1.000
    C163     C        0.24900    0.37520    0.03190    1.000
    H106     H        0.20630    0.35350    0.01140    1.000
    C164     C        0.53930    0.63910    0.08510    1.000
    H107     H        0.51910    0.61670    0.10700    1.000
    C165     C        0.24820    0.29290    0.32000    1.000
    H108     H        0.22420    0.31050    0.34020    1.000
    C166     C        0.33950    0.39700    0.11580    1.000
    H109     H        0.36180    0.39020    0.15560    1.000
    C167     C        0.22170    0.30180    0.26040    1.000
    H110     H        0.17980    0.32620    0.24140    1.000
    C168     C        0.60100    0.70910    0.02570    1.000
    H111     H        0.62230    0.73290    0.00510    1.000
    C169     C        0.34390    0.23230    0.31670    1.000
    H112     H        0.38600    0.20820    0.33460    1.000
    C170     C        0.34170    0.24850    0.41280    1.000
    C171     C        0.48760    0.15000    0.52310    1.000
    C172     C        0.34500    0.32490    0.59300    1.000
    H113     H        0.38420    0.29610    0.61410    1.000
    C173     C        0.31360    0.24330    0.25810    1.000
    H114     H        0.33670    0.22600    0.23710    1.000
    C174     C        0.28760    0.46300    0.82270    1.000
    H115     H        0.27100    0.43330    0.84450    1.000
    C175     C        0.51150    0.62750    0.02550    1.000
    C176     C        0.57790    0.07090    0.52100    1.000
    H116     H        0.59810    0.04640    0.49980    1.000
    C177     C        0.25850    0.45670    0.76340    1.000
    H117     H        0.22240    0.42180    0.74600    1.000
    C178     C        0.36700    0.55400    0.81560    1.000
    H118     H        0.40560    0.58530    0.83190    1.000
    C179     C        0.33230    0.54540    0.75620    1.000
    H119     H        0.34740    0.57520    0.73330    1.000
    C180     C        0.31470    0.36900    0.62100    1.000
    H120     H        0.33580    0.37140    0.66110    1.000
    N49      N        0.62850    0.71910    0.08250    1.000
    N50      N        0.27840    0.36550    0.08890    1.000
    N51      N        0.27970    0.49860    0.72940    1.000
    N52      N        0.42610    0.53900    0.02790    1.000
    N53      N        0.34430    0.48290    0.94170    1.000
    N54      N        0.42510    0.57280    0.93740    1.000
    N55      N        0.25640    0.40860    0.59320    1.000
    N56      N        0.25370    0.27680    0.22900    1.000
    N57      N        0.60780    0.06420    0.57800    1.000
    N58      N        0.40270    0.23890    0.52710    1.000
    N59      N        0.31420    0.28710    0.44170    1.000
    N60      N        0.39650    0.20120    0.43610    1.000
    Ag11     Ag       0.22637    0.29121    0.13206    1.000
    Ag12     Ag       0.70443    0.99687    0.63256    1.000
    C181     C        0.84690    0.78020    0.49970    1.000
    C182     C        0.07780    0.60050    0.60810    1.000
    H121     H        0.09860    0.59750    0.64820    1.000
    C183     C        0.87240    0.93890    0.08940    1.000
    H122     H        0.91510    0.96030    0.11080    1.000
    C184     C        0.87250    0.99330    0.99830    1.000
    C185     C        0.92540    0.69840    0.49400    1.000
    C186     C        0.72930    0.90650    0.53540    1.000
    H123     H        0.68920    0.93410    0.51520    1.000
    C187     C        0.01810    0.61270    0.49130    1.000
    H124     H        0.99870    0.61580    0.45120    1.000
    C188     C        0.09710    0.18410    0.11120    1.000
    H125     H        0.11530    0.19050    0.15110    1.000
    C189     C        0.75720    0.86610    0.50440    1.000
    H126     H        0.73660    0.86690    0.46420    1.000
    C190     C        0.84110    0.94850    0.03100    1.000
    C191     C        0.77760    0.91490    0.00180    1.000
    H127     H        0.75470    0.91960    0.96190    1.000
    C192     C        0.81640    0.82410    0.53370    1.000
    C193     C        0.87310    0.02470    0.91280    1.000
    C194     C        0.84190    0.01420    0.84950    1.000
    C195     C        0.01810    0.64160    0.58200    1.000
    H128     H        0.99840    0.66380    0.60430    1.000
    C196     C        0.95040    0.07750    0.99540    1.000
    C197     C        0.81010    0.75800    0.34850    1.000
    C198     C        0.04280    0.16590    0.99470    1.000
    H129     H        0.02490    0.16240    0.95460    1.000
    C199     C        0.74900    0.87520    0.03190    1.000
    H130     H        0.70630    0.85350    0.01140    1.000
    C200     C        0.03930    0.13910    0.08510    1.000
    H131     H        0.01910    0.11670    0.10700    1.000
    C201     C        0.74820    0.79290    0.32000    1.000
    H132     H        0.72420    0.81050    0.34020    1.000
    C202     C        0.83950    0.89700    0.11580    1.000
    H133     H        0.86180    0.89020    0.15560    1.000
    C203     C        0.72170    0.80180    0.26040    1.000
    H134     H        0.67980    0.82620    0.24140    1.000
    C204     C        0.10100    0.20910    0.02570    1.000
    H135     H        0.12230    0.23290    0.00510    1.000
    C205     C        0.84390    0.73230    0.31670    1.000
    H136     H        0.88600    0.70820    0.33460    1.000
    C206     C        0.84170    0.74850    0.41280    1.000
    C207     C        0.98760    0.65000    0.52310    1.000
    C208     C        0.84500    0.82490    0.59300    1.000
    H137     H        0.88420    0.79610    0.61410    1.000
    C209     C        0.81360    0.74330    0.25810    1.000
    H138     H        0.83670    0.72600    0.23710    1.000
    C210     C        0.78760    0.96300    0.82270    1.000
    H139     H        0.77100    0.93330    0.84450    1.000
    C211     C        0.01150    0.12750    0.02550    1.000
    C212     C        0.07790    0.57090    0.52100    1.000
    H140     H        0.09810    0.54640    0.49980    1.000
    C213     C        0.75850    0.95670    0.76340    1.000
    H141     H        0.72240    0.92180    0.74600    1.000
    C214     C        0.86700    0.05400    0.81560    1.000
    H142     H        0.90560    0.08530    0.83190    1.000
    C215     C        0.83230    0.04540    0.75620    1.000
    H143     H        0.84740    0.07520    0.73330    1.000
    C216     C        0.81470    0.86900    0.62100    1.000
    H144     H        0.83580    0.87140    0.66110    1.000
    N61      N        0.12850    0.21910    0.08250    1.000
    N62      N        0.77840    0.86550    0.08890    1.000
    N63      N        0.77970    0.99860    0.72940    1.000
    N64      N        0.92610    0.03900    0.02790    1.000
    N65      N        0.84430    0.98290    0.94170    1.000
    N66      N        0.92510    0.07280    0.93740    1.000
    N67      N        0.75640    0.90860    0.59320    1.000
    N68      N        0.75370    0.77680    0.22900    1.000
    N69      N        0.10780    0.56420    0.57800    1.000
    N70      N        0.90270    0.73890    0.52710    1.000
    N71      N        0.81420    0.78710    0.44170    1.000
    N72      N        0.89650    0.70120    0.43610    1.000
    Ag13     Ag       0.27363    0.79121    0.36794    1.000
    Ag14     Ag       0.79557    0.49687    0.86744    1.000
    C217     C        0.65310    0.28020    0.00030    1.000
    C218     C        0.42220    0.10050    0.89190    1.000
    H145     H        0.40140    0.09750    0.85180    1.000
    C219     C        0.62760    0.43890    0.41060    1.000
    H146     H        0.58490    0.46030    0.38920    1.000
    C220     C        0.62750    0.49330    0.50170    1.000
    C221     C        0.57460    0.19840    0.00600    1.000
    C222     C        0.77070    0.40650    0.96460    1.000
    H147     H        0.81080    0.43410    0.98480    1.000
    C223     C        0.48190    0.11270    0.00870    1.000
    H148     H        0.50130    0.11580    0.04880    1.000
    C224     C        0.40290    0.68410    0.38880    1.000
    H149     H        0.38470    0.69050    0.34890    1.000
    C225     C        0.74280    0.36610    0.99560    1.000
    H150     H        0.76340    0.36690    0.03580    1.000
    C226     C        0.65890    0.44850    0.46900    1.000
    C227     C        0.72240    0.41490    0.49820    1.000
    H151     H        0.74530    0.41960    0.53810    1.000
    C228     C        0.68360    0.32410    0.96630    1.000
    C229     C        0.62690    0.52470    0.58720    1.000
    C230     C        0.65810    0.51420    0.65050    1.000
    C231     C        0.48190    0.14160    0.91800    1.000
    H152     H        0.50160    0.16380    0.89570    1.000
    C232     C        0.54960    0.57750    0.50460    1.000
    C233     C        0.68990    0.25800    0.15150    1.000
    C234     C        0.45720    0.66590    0.50530    1.000
    H153     H        0.47510    0.66240    0.54540    1.000
    C235     C        0.75100    0.37520    0.46810    1.000
    H154     H        0.79370    0.35350    0.48860    1.000
    C236     C        0.46070    0.63910    0.41490    1.000
    H155     H        0.48090    0.61670    0.39300    1.000
    C237     C        0.75180    0.29290    0.18000    1.000
    H156     H        0.77580    0.31050    0.15980    1.000
    C238     C        0.66050    0.39700    0.38420    1.000
    H157     H        0.63820    0.39020    0.34440    1.000
    C239     C        0.77830    0.30180    0.23960    1.000
    H158     H        0.82020    0.32620    0.25860    1.000
    C240     C        0.39900    0.70910    0.47430    1.000
    H159     H        0.37770    0.73290    0.49490    1.000
    C241     C        0.65610    0.23230    0.18330    1.000
    H160     H        0.61400    0.20820    0.16540    1.000
    C242     C        0.65830    0.24850    0.08720    1.000
    C243     C        0.51240    0.15000    0.97690    1.000
    C244     C        0.65500    0.32490    0.90700    1.000
    H161     H        0.61580    0.29610    0.88590    1.000
    C245     C        0.68640    0.24330    0.24190    1.000
    H162     H        0.66330    0.22600    0.26290    1.000
    C246     C        0.71240    0.46300    0.67730    1.000
    H163     H        0.72900    0.43330    0.65550    1.000
    C247     C        0.48850    0.62750    0.47450    1.000
    C248     C        0.42210    0.07090    0.97900    1.000
    H164     H        0.40190    0.04640    0.00020    1.000
    C249     C        0.74150    0.45670    0.73660    1.000
    H165     H        0.77760    0.42180    0.75400    1.000
    C250     C        0.63300    0.55400    0.68440    1.000
    H166     H        0.59440    0.58530    0.66810    1.000
    C251     C        0.66770    0.54540    0.74380    1.000
    H167     H        0.65260    0.57520    0.76670    1.000
    C252     C        0.68530    0.36900    0.87900    1.000
    H168     H        0.66420    0.37140    0.83890    1.000
    N73      N        0.37150    0.71910    0.41750    1.000
    N74      N        0.72160    0.36550    0.41110    1.000
    N75      N        0.72030    0.49860    0.77060    1.000
    N76      N        0.57390    0.53900    0.47210    1.000
    N77      N        0.65570    0.48290    0.55830    1.000
    N78      N        0.57490    0.57280    0.56260    1.000
    N79      N        0.74360    0.40860    0.90680    1.000
    N80      N        0.74630    0.27680    0.27100    1.000
    N81      N        0.39220    0.06420    0.92200    1.000
    N82      N        0.59730    0.23890    0.97290    1.000
    N83      N        0.68580    0.28710    0.05830    1.000
    N84      N        0.60350    0.20120    0.06390    1.000
    Ag15     Ag       0.77363    0.29121    0.36794    1.000
    Ag16     Ag       0.29557    0.99687    0.86744    1.000
    C253     C        0.15310    0.78020    0.00030    1.000
    C254     C        0.92220    0.60050    0.89190    1.000
    H169     H        0.90140    0.59750    0.85180    1.000
    C255     C        0.12760    0.93890    0.41060    1.000
    H170     H        0.08490    0.96030    0.38920    1.000
    C256     C        0.12750    0.99330    0.50170    1.000
    C257     C        0.07460    0.69840    0.00600    1.000
    C258     C        0.27070    0.90650    0.96460    1.000
    H171     H        0.31080    0.93410    0.98480    1.000
    C259     C        0.98190    0.61270    0.00870    1.000
    H172     H        0.00130    0.61580    0.04880    1.000
    C260     C        0.90290    0.18410    0.38880    1.000
    H173     H        0.88470    0.19050    0.34890    1.000
    C261     C        0.24280    0.86610    0.99560    1.000
    H174     H        0.26340    0.86690    0.03580    1.000
    C262     C        0.15890    0.94850    0.46900    1.000
    C263     C        0.22240    0.91490    0.49820    1.000
    H175     H        0.24530    0.91960    0.53810    1.000
    C264     C        0.18360    0.82410    0.96630    1.000
    C265     C        0.12690    0.02470    0.58720    1.000
    C266     C        0.15810    0.01420    0.65050    1.000
    C267     C        0.98190    0.64160    0.91800    1.000
    H176     H        0.00160    0.66380    0.89570    1.000
    C268     C        0.04960    0.07750    0.50460    1.000
    C269     C        0.18990    0.75800    0.15150    1.000
    C270     C        0.95720    0.16590    0.50530    1.000
    H177     H        0.97510    0.16240    0.54540    1.000
    C271     C        0.25100    0.87520    0.46810    1.000
    H178     H        0.29370    0.85350    0.48860    1.000
    C272     C        0.96070    0.13910    0.41490    1.000
    H179     H        0.98090    0.11670    0.39300    1.000
    C273     C        0.25180    0.79290    0.18000    1.000
    H180     H        0.27580    0.81050    0.15980    1.000
    C274     C        0.16050    0.89700    0.38420    1.000
    H181     H        0.13820    0.89020    0.34440    1.000
    C275     C        0.27830    0.80180    0.23960    1.000
    H182     H        0.32020    0.82620    0.25860    1.000
    C276     C        0.89900    0.20910    0.47430    1.000
    H183     H        0.87770    0.23290    0.49490    1.000
    C277     C        0.15610    0.73230    0.18330    1.000
    H184     H        0.11400    0.70820    0.16540    1.000
    C278     C        0.15830    0.74850    0.08720    1.000
    C279     C        0.01240    0.65000    0.97690    1.000
    C280     C        0.15500    0.82490    0.90700    1.000
    H185     H        0.11580    0.79610    0.88590    1.000
    C281     C        0.18640    0.74330    0.24190    1.000
    H186     H        0.16330    0.72600    0.26290    1.000
    C282     C        0.21240    0.96300    0.67730    1.000
    H187     H        0.22900    0.93330    0.65550    1.000
    C283     C        0.98850    0.12750    0.47450    1.000
    C284     C        0.92210    0.57090    0.97900    1.000
    H188     H        0.90190    0.54640    0.00020    1.000
    C285     C        0.24150    0.95670    0.73660    1.000
    H189     H        0.27760    0.92180    0.75400    1.000
    C286     C        0.13300    0.05400    0.68440    1.000
    H190     H        0.09440    0.08530    0.66810    1.000
    C287     C        0.16770    0.04540    0.74380    1.000
    H191     H        0.15260    0.07520    0.76670    1.000
    C288     C        0.18530    0.86900    0.87900    1.000
    H192     H        0.16420    0.87140    0.83890    1.000
    N85      N        0.87150    0.21910    0.41750    1.000
    N86      N        0.22160    0.86550    0.41110    1.000
    N87      N        0.22030    0.99860    0.77060    1.000
    N88      N        0.07390    0.03900    0.47210    1.000
    N89      N        0.15570    0.98290    0.55830    1.000
    N90      N        0.07490    0.07280    0.56260    1.000
    N91      N        0.24360    0.90860    0.90680    1.000
    N92      N        0.24630    0.77680    0.27100    1.000
    N93      N        0.89220    0.56420    0.92200    1.000
    N94      N        0.09730    0.73890    0.97290    1.000
    N95      N        0.18580    0.78710    0.05830    1.000
    N96      N        0.10350    0.70120    0.06390    1.000
