# CIF file generated by openbabel 3.1.0, see https://openbabel.org
data_I
_chemical_name_common 'image0'
_cell_length_a 24.1977
_cell_length_b 13.9528
_cell_length_c 25.1006
_cell_angle_alpha 90
_cell_angle_beta 96.677
_cell_angle_gamma 90
_space_group_name_H-M_alt 'P 1'
_space_group_name_Hall 'P 1'
loop_
    _symmetry_equiv_pos_as_xyz
    x,y,z
loop_
    _atom_site_label
    _atom_site_type_symbol
    _atom_site_fract_x
    _atom_site_fract_y
    _atom_site_fract_z
    _atom_site_occupancy
    Cd1      Cd       0.22996    0.23640    0.92103    1.000
    O1       O        0.22820    0.23220    0.82820    1.000
    O2       O        0.82290    0.26900    0.42750    1.000
    O3       O        0.99400    0.26410    0.33900    1.000
    N1       N        0.22860    0.40160    0.92510    1.000
    O4       O        0.11910    0.24200    0.56180    1.000
    O5       O        0.14530    0.23550    0.85500    1.000
    O6       O        0.82730    0.23920    0.51370    1.000
    N2       N        0.22570    0.07170    0.92850    1.000
    C1       C        0.15120    0.23750    0.76050    1.000
    C2       C        0.09460    0.24150    0.74680    1.000
    H1       H        0.07120    0.24490    0.77360    1.000
    C3       C        0.07200    0.24030    0.69340    1.000
    H2       H        0.03360    0.23920    0.68470    1.000
    C4       C        0.10640    0.24070    0.65300    1.000
    C5       C        0.16270    0.23880    0.66770    1.000
    H3       H        0.18650    0.23870    0.64120    1.000
    C6       C        0.18510    0.23700    0.72080    1.000
    H4       H        0.22350    0.23550    0.72950    1.000
    C7       C        0.00150    0.24950    0.52820    1.000
    C8       C        0.94380    0.24970    0.52500    1.000
    H5       H        0.92660    0.24680    0.55620    1.000
    C9       C        0.91180    0.25430    0.47580    1.000
    C10      C        0.93760    0.25940    0.42920    1.000
    H6       H        0.91610    0.26270    0.39600    1.000
    C11      C        0.99510    0.25940    0.43210    1.000
    C12      C        0.02720    0.25350    0.48160    1.000
    H7       H        0.06580    0.25230    0.48350    1.000
    C13      C        0.17610    0.23500    0.81810    1.000
    C14      C        0.84930    0.25410    0.47250    1.000
    C15      C        0.02330    0.26430    0.38230    1.000
    C16      C        0.08590    0.24460    0.59430    1.000
    C17      C        0.26940    0.01850    0.92800    1.000
    H8       H        0.30390    0.04740    0.92710    1.000
    C18      C        0.26600    0.91690    0.92890    1.000
    H9       H        0.29820    0.88080    0.92840    1.000
    C19      C        0.21700    0.87200    0.93050    1.000
    C20      C        0.17150    0.92860    0.93270    1.000
    H10      H        0.13680    0.90150    0.93540    1.000
    C21      C        0.17750    0.02530    0.93100    1.000
    H11      H        0.14560    0.06230    0.93170    1.000
    C22      C        0.20210    0.77000    0.92790    1.000
    H12      H        0.16490    0.75170    0.92280    1.000
    C23      C        0.24320    0.70170    0.93310    1.000
    H13      H        0.28010    0.72130    0.93870    1.000
    C24      C        0.18160    0.44920    0.92830    1.000
    H14      H        0.14840    0.41600    0.92910    1.000
    C25      C        0.18210    0.55070    0.93030    1.000
    H15      H        0.14900    0.58370    0.93190    1.000
    C26      C        0.23100    0.60140    0.93000    1.000
    C27      C        0.27900    0.54840    0.92570    1.000
    H16      H        0.31280    0.57930    0.92390    1.000
    C28      C        0.27600    0.45040    0.92420    1.000
    H17      H        0.30870    0.41600    0.92250    1.000
    N3       N        0.03090    0.24680    0.58040    1.000
    H18      H        0.01080    0.24660    0.60650    1.000
    C29      C        0.22710    0.00610    0.26680    1.000
    H19      H        0.22820    0.95740    0.29220    1.000
    C30      C        0.27180    0.02060    0.24270    1.000
    H20      H        0.26990    0.06030    0.21280    1.000
    C31      C        0.42270    0.94270    0.29970    1.000
    H21      H        0.45120    0.94680    0.32780    1.000
    C32      C        0.37020    0.97850    0.30580    1.000
    H22      H        0.36350    0.00650    0.33810    1.000
    C33      C        0.32760    0.97230    0.26370    1.000
    C34      C        0.33750    0.93040    0.21550    1.000
    H23      H        0.30900    0.92630    0.18740    1.000
    C35      C        0.39000    0.89460    0.20940    1.000
    H24      H        0.39660    0.86660    0.17710    1.000
    N4       N        0.43260    0.90080    0.25150    1.000
    N5       N        0.07770    0.17120    0.25310    1.000
    C36      C        0.11970    0.19960    0.22310    1.000
    H25      H        0.11540    0.25460    0.20220    1.000
    C37      C        0.16810    0.14560    0.22450    1.000
    H26      H        0.19620    0.16460    0.20440    1.000
    C38      C        0.17460    0.06330    0.25570    1.000
    C39      C        0.13260    0.03490    0.28570    1.000
    H27      H        0.13690    0.97990    0.30670    1.000
    C40      C        0.08410    0.08890    0.28440    1.000
    H28      H        0.05610    0.06990    0.30440    1.000
    O7       O        0.07080    0.30400    0.38740    1.000
    C41      C        0.24250    0.76090    0.93430    1.000
    H29      H        0.27960    0.74230    0.94060    1.000
    C42      C        0.20210    0.71040    0.92690    1.000
    H30      H        0.16470    0.72740    0.92110    1.000
    C43      C        0.22620    0.00710    0.23790    1.000
    H31      H        0.22890    0.98140    0.20410    1.000
    C44      C        0.27280    0.00000    0.27170    1.000
    H32      H        0.27540    0.01300    0.30820    1.000
    C45      C        0.41360    0.94680    0.21600    1.000
    H33      H        0.44180    0.96720    0.19650    1.000
    C46      C        0.36380    0.99740    0.21300    1.000
    H34      H        0.35880    0.05180    0.19160    1.000
    C47      C        0.32160    0.96680    0.24210    1.000
    C48      C        0.32910    0.88560    0.27420    1.000
    H35      H        0.30090    0.86510    0.29360    1.000
    C49      C        0.37880    0.83490    0.27710    1.000
    H36      H        0.38390    0.78050    0.29860    1.000
    N6       N        0.42110    0.86550    0.24810    1.000
    N7       N        0.06790    0.13580    0.25080    1.000
    C50      C        0.07740    0.08610    0.20470    1.000
    H37      H        0.04950    0.08190    0.17600    1.000
    C51      C        0.12860    0.04270    0.20150    1.000
    H38      H        0.13500    0.00950    0.17070    1.000
    C52      C        0.17040    0.04900    0.24440    1.000
    C53      C        0.16090    0.09870    0.29040    1.000
    H39      H        0.18880    0.10280    0.31910    1.000
    C54      C        0.10960    0.14200    0.29360    1.000
    H40      H        0.10330    0.17530    0.32450    1.000
    O8       O        0.07170    0.23200    0.38510    1.000
    Cd2      Cd       0.72996    0.73640    0.92103    1.000
    O9       O        0.72820    0.73220    0.82820    1.000
    O10      O        0.32290    0.76900    0.42750    1.000
    O11      O        0.49400    0.76410    0.33900    1.000
    N8       N        0.72860    0.90160    0.92510    1.000
    O12      O        0.61910    0.74200    0.56180    1.000
    O13      O        0.64530    0.73550    0.85500    1.000
    O14      O        0.32730    0.73920    0.51370    1.000
    N9       N        0.72570    0.57170    0.92850    1.000
    C55      C        0.65120    0.73750    0.76050    1.000
    C56      C        0.59460    0.74150    0.74680    1.000
    H41      H        0.57120    0.74490    0.77360    1.000
    C57      C        0.57200    0.74030    0.69340    1.000
    H42      H        0.53360    0.73920    0.68470    1.000
    C58      C        0.60640    0.74070    0.65300    1.000
    C59      C        0.66270    0.73880    0.66770    1.000
    H43      H        0.68650    0.73870    0.64120    1.000
    C60      C        0.68510    0.73700    0.72080    1.000
    H44      H        0.72350    0.73550    0.72950    1.000
    C61      C        0.50150    0.74950    0.52820    1.000
    C62      C        0.44380    0.74970    0.52500    1.000
    H45      H        0.42660    0.74680    0.55620    1.000
    C63      C        0.41180    0.75430    0.47580    1.000
    C64      C        0.43760    0.75940    0.42920    1.000
    H46      H        0.41610    0.76270    0.39600    1.000
    C65      C        0.49510    0.75940    0.43210    1.000
    C66      C        0.52720    0.75350    0.48160    1.000
    H47      H        0.56580    0.75230    0.48350    1.000
    C67      C        0.67610    0.73500    0.81810    1.000
    C68      C        0.34930    0.75410    0.47250    1.000
    C69      C        0.52330    0.76430    0.38230    1.000
    C70      C        0.58590    0.74460    0.59430    1.000
    C71      C        0.76940    0.51850    0.92800    1.000
    H48      H        0.80390    0.54740    0.92710    1.000
    C72      C        0.76600    0.41690    0.92890    1.000
    H49      H        0.79820    0.38080    0.92840    1.000
    C73      C        0.71700    0.37200    0.93050    1.000
    C74      C        0.67150    0.42860    0.93270    1.000
    H50      H        0.63680    0.40150    0.93540    1.000
    C75      C        0.67750    0.52530    0.93100    1.000
    H51      H        0.64560    0.56230    0.93170    1.000
    C76      C        0.70210    0.27000    0.92790    1.000
    H52      H        0.66490    0.25170    0.92280    1.000
    C77      C        0.74320    0.20170    0.93310    1.000
    H53      H        0.78010    0.22130    0.93870    1.000
    C78      C        0.68160    0.94920    0.92830    1.000
    H54      H        0.64840    0.91600    0.92910    1.000
    C79      C        0.68210    0.05070    0.93030    1.000
    H55      H        0.64900    0.08370    0.93190    1.000
    C80      C        0.73100    0.10140    0.93000    1.000
    C81      C        0.77900    0.04840    0.92570    1.000
    H56      H        0.81280    0.07930    0.92390    1.000
    C82      C        0.77600    0.95040    0.92420    1.000
    H57      H        0.80870    0.91600    0.92250    1.000
    N10      N        0.53090    0.74680    0.58040    1.000
    H58      H        0.51080    0.74660    0.60650    1.000
    C83      C        0.72710    0.50610    0.26680    1.000
    H59      H        0.72820    0.45740    0.29220    1.000
    C84      C        0.77180    0.52060    0.24270    1.000
    H60      H        0.76990    0.56030    0.21280    1.000
    C85      C        0.92270    0.44270    0.29970    1.000
    H61      H        0.95120    0.44680    0.32780    1.000
    C86      C        0.87020    0.47850    0.30580    1.000
    H62      H        0.86350    0.50650    0.33810    1.000
    C87      C        0.82760    0.47230    0.26370    1.000
    C88      C        0.83750    0.43040    0.21550    1.000
    H63      H        0.80900    0.42630    0.18740    1.000
    C89      C        0.89000    0.39460    0.20940    1.000
    H64      H        0.89660    0.36660    0.17710    1.000
    N11      N        0.93260    0.40080    0.25150    1.000
    N12      N        0.57770    0.67120    0.25310    1.000
    C90      C        0.61970    0.69960    0.22310    1.000
    H65      H        0.61540    0.75460    0.20220    1.000
    C91      C        0.66810    0.64560    0.22450    1.000
    H66      H        0.69620    0.66460    0.20440    1.000
    C92      C        0.67460    0.56330    0.25570    1.000
    C93      C        0.63260    0.53490    0.28570    1.000
    H67      H        0.63690    0.47990    0.30670    1.000
    C94      C        0.58410    0.58890    0.28440    1.000
    H68      H        0.55610    0.56990    0.30440    1.000
    O15      O        0.57080    0.80400    0.38740    1.000
    C95      C        0.74250    0.26090    0.93430    1.000
    H69      H        0.77960    0.24230    0.94060    1.000
    C96      C        0.70210    0.21040    0.92690    1.000
    H70      H        0.66470    0.22740    0.92110    1.000
    C97      C        0.72620    0.50710    0.23790    1.000
    H71      H        0.72890    0.48140    0.20410    1.000
    C98      C        0.77280    0.50000    0.27170    1.000
    H72      H        0.77540    0.51300    0.30820    1.000
    C99      C        0.91360    0.44680    0.21600    1.000
    H73      H        0.94180    0.46720    0.19650    1.000
    C100     C        0.86380    0.49740    0.21300    1.000
    H74      H        0.85880    0.55180    0.19160    1.000
    C101     C        0.82160    0.46680    0.24210    1.000
    C102     C        0.82910    0.38560    0.27420    1.000
    H75      H        0.80090    0.36510    0.29360    1.000
    C103     C        0.87880    0.33490    0.27710    1.000
    H76      H        0.88390    0.28050    0.29860    1.000
    N13      N        0.92110    0.36550    0.24810    1.000
    N14      N        0.56790    0.63580    0.25080    1.000
    C104     C        0.57740    0.58610    0.20470    1.000
    H77      H        0.54950    0.58190    0.17600    1.000
    C105     C        0.62860    0.54270    0.20150    1.000
    H78      H        0.63500    0.50950    0.17070    1.000
    C106     C        0.67040    0.54900    0.24440    1.000
    C107     C        0.66090    0.59870    0.29040    1.000
    H79      H        0.68880    0.60280    0.31910    1.000
    C108     C        0.60960    0.64200    0.29360    1.000
    H80      H        0.60330    0.67530    0.32450    1.000
    O16      O        0.57170    0.73200    0.38510    1.000
    Cd3      Cd       0.77004    0.23640    0.57897    1.000
    O17      O        0.77180    0.23220    0.67180    1.000
    O18      O        0.17710    0.26900    0.07250    1.000
    O19      O        0.00600    0.26410    0.16100    1.000
    N15      N        0.77140    0.40160    0.57490    1.000
    O20      O        0.88090    0.24200    0.93820    1.000
    O21      O        0.85470    0.23550    0.64500    1.000
    O22      O        0.17270    0.23920    0.98630    1.000
    N16      N        0.77430    0.07170    0.57150    1.000
    C109     C        0.84880    0.23750    0.73950    1.000
    C110     C        0.90540    0.24150    0.75320    1.000
    H81      H        0.92880    0.24490    0.72640    1.000
    C111     C        0.92800    0.24030    0.80660    1.000
    H82      H        0.96640    0.23920    0.81530    1.000
    C112     C        0.89360    0.24070    0.84700    1.000
    C113     C        0.83730    0.23880    0.83230    1.000
    H83      H        0.81350    0.23870    0.85880    1.000
    C114     C        0.81490    0.23700    0.77920    1.000
    H84      H        0.77650    0.23550    0.77050    1.000
    C115     C        0.99850    0.24950    0.97180    1.000
    C116     C        0.05620    0.24970    0.97500    1.000
    H85      H        0.07340    0.24680    0.94380    1.000
    C117     C        0.08820    0.25430    0.02420    1.000
    C118     C        0.06240    0.25940    0.07080    1.000
    H86      H        0.08390    0.26270    0.10400    1.000
    C119     C        0.00490    0.25940    0.06790    1.000
    C120     C        0.97280    0.25350    0.01840    1.000
    H87      H        0.93420    0.25230    0.01650    1.000
    C121     C        0.82390    0.23500    0.68190    1.000
    C122     C        0.15070    0.25410    0.02750    1.000
    C123     C        0.97670    0.26430    0.11770    1.000
    C124     C        0.91410    0.24460    0.90570    1.000
    C125     C        0.73060    0.01850    0.57200    1.000
    H88      H        0.69610    0.04740    0.57290    1.000
    C126     C        0.73400    0.91690    0.57110    1.000
    H89      H        0.70180    0.88080    0.57160    1.000
    C127     C        0.78300    0.87200    0.56950    1.000
    C128     C        0.82850    0.92860    0.56730    1.000
    H90      H        0.86320    0.90150    0.56460    1.000
    C129     C        0.82250    0.02530    0.56900    1.000
    H91      H        0.85440    0.06230    0.56830    1.000
    C130     C        0.79790    0.77000    0.57210    1.000
    H92      H        0.83510    0.75170    0.57720    1.000
    C131     C        0.75680    0.70170    0.56690    1.000
    H93      H        0.71990    0.72130    0.56130    1.000
    C132     C        0.81840    0.44920    0.57170    1.000
    H94      H        0.85160    0.41600    0.57090    1.000
    C133     C        0.81790    0.55070    0.56970    1.000
    H95      H        0.85100    0.58370    0.56810    1.000
    C134     C        0.76900    0.60140    0.57000    1.000
    C135     C        0.72100    0.54840    0.57430    1.000
    H96      H        0.68720    0.57930    0.57610    1.000
    C136     C        0.72400    0.45040    0.57580    1.000
    H97      H        0.69130    0.41600    0.57750    1.000
    N17      N        0.96910    0.24680    0.91960    1.000
    H98      H        0.98920    0.24660    0.89350    1.000
    C137     C        0.77290    0.00610    0.23320    1.000
    H99      H        0.77180    0.95740    0.20780    1.000
    C138     C        0.72820    0.02060    0.25730    1.000
    H100     H        0.73010    0.06030    0.28720    1.000
    C139     C        0.57730    0.94270    0.20030    1.000
    H101     H        0.54880    0.94680    0.17220    1.000
    C140     C        0.62980    0.97850    0.19420    1.000
    H102     H        0.63650    0.00650    0.16190    1.000
    C141     C        0.67240    0.97230    0.23630    1.000
    C142     C        0.66250    0.93040    0.28450    1.000
    H103     H        0.69100    0.92630    0.31260    1.000
    C143     C        0.61000    0.89460    0.29060    1.000
    H104     H        0.60340    0.86660    0.32290    1.000
    N18      N        0.56740    0.90080    0.24850    1.000
    N19      N        0.92230    0.17120    0.24690    1.000
    C144     C        0.88030    0.19960    0.27690    1.000
    H105     H        0.88460    0.25460    0.29780    1.000
    C145     C        0.83190    0.14560    0.27550    1.000
    H106     H        0.80380    0.16460    0.29560    1.000
    C146     C        0.82540    0.06330    0.24430    1.000
    C147     C        0.86740    0.03490    0.21430    1.000
    H107     H        0.86310    0.97990    0.19330    1.000
    C148     C        0.91590    0.08890    0.21560    1.000
    H108     H        0.94390    0.06990    0.19560    1.000
    O23      O        0.92920    0.30400    0.11260    1.000
    C149     C        0.75750    0.76090    0.56570    1.000
    H109     H        0.72040    0.74230    0.55940    1.000
    C150     C        0.79790    0.71040    0.57310    1.000
    H110     H        0.83530    0.72740    0.57890    1.000
    C151     C        0.77380    0.00710    0.26210    1.000
    H111     H        0.77110    0.98140    0.29590    1.000
    C152     C        0.72720    0.00000    0.22830    1.000
    H112     H        0.72460    0.01300    0.19180    1.000
    C153     C        0.58640    0.94680    0.28400    1.000
    H113     H        0.55820    0.96720    0.30350    1.000
    C154     C        0.63620    0.99740    0.28700    1.000
    H114     H        0.64120    0.05180    0.30840    1.000
    C155     C        0.67840    0.96680    0.25790    1.000
    C156     C        0.67090    0.88560    0.22580    1.000
    H115     H        0.69910    0.86510    0.20640    1.000
    C157     C        0.62120    0.83490    0.22290    1.000
    H116     H        0.61610    0.78050    0.20140    1.000
    N20      N        0.57890    0.86550    0.25190    1.000
    N21      N        0.93210    0.13580    0.24920    1.000
    C158     C        0.92260    0.08610    0.29530    1.000
    H117     H        0.95050    0.08190    0.32400    1.000
    C159     C        0.87140    0.04270    0.29850    1.000
    H118     H        0.86500    0.00950    0.32930    1.000
    C160     C        0.82960    0.04900    0.25560    1.000
    C161     C        0.83910    0.09870    0.20960    1.000
    H119     H        0.81120    0.10280    0.18090    1.000
    C162     C        0.89040    0.14200    0.20640    1.000
    H120     H        0.89670    0.17530    0.17550    1.000
    O24      O        0.92830    0.23200    0.11490    1.000
    Cd4      Cd       0.27004    0.73640    0.57897    1.000
    O25      O        0.27180    0.73220    0.67180    1.000
    O26      O        0.67710    0.76900    0.07250    1.000
    O27      O        0.50600    0.76410    0.16100    1.000
    N22      N        0.27140    0.90160    0.57490    1.000
    O28      O        0.38090    0.74200    0.93820    1.000
    O29      O        0.35470    0.73550    0.64500    1.000
    O30      O        0.67270    0.73920    0.98630    1.000
    N23      N        0.27430    0.57170    0.57150    1.000
    C163     C        0.34880    0.73750    0.73950    1.000
    C164     C        0.40540    0.74150    0.75320    1.000
    H121     H        0.42880    0.74490    0.72640    1.000
    C165     C        0.42800    0.74030    0.80660    1.000
    H122     H        0.46640    0.73920    0.81530    1.000
    C166     C        0.39360    0.74070    0.84700    1.000
    C167     C        0.33730    0.73880    0.83230    1.000
    H123     H        0.31350    0.73870    0.85880    1.000
    C168     C        0.31490    0.73700    0.77920    1.000
    H124     H        0.27650    0.73550    0.77050    1.000
    C169     C        0.49850    0.74950    0.97180    1.000
    C170     C        0.55620    0.74970    0.97500    1.000
    H125     H        0.57340    0.74680    0.94380    1.000
    C171     C        0.58820    0.75430    0.02420    1.000
    C172     C        0.56240    0.75940    0.07080    1.000
    H126     H        0.58390    0.76270    0.10400    1.000
    C173     C        0.50490    0.75940    0.06790    1.000
    C174     C        0.47280    0.75350    0.01840    1.000
    H127     H        0.43420    0.75230    0.01650    1.000
    C175     C        0.32390    0.73500    0.68190    1.000
    C176     C        0.65070    0.75410    0.02750    1.000
    C177     C        0.47670    0.76430    0.11770    1.000
    C178     C        0.41410    0.74460    0.90570    1.000
    C179     C        0.23060    0.51850    0.57200    1.000
    H128     H        0.19610    0.54740    0.57290    1.000
    C180     C        0.23400    0.41690    0.57110    1.000
    H129     H        0.20180    0.38080    0.57160    1.000
    C181     C        0.28300    0.37200    0.56950    1.000
    C182     C        0.32850    0.42860    0.56730    1.000
    H130     H        0.36320    0.40150    0.56460    1.000
    C183     C        0.32250    0.52530    0.56900    1.000
    H131     H        0.35440    0.56230    0.56830    1.000
    C184     C        0.29790    0.27000    0.57210    1.000
    H132     H        0.33510    0.25170    0.57720    1.000
    C185     C        0.25680    0.20170    0.56690    1.000
    H133     H        0.21990    0.22130    0.56130    1.000
    C186     C        0.31840    0.94920    0.57170    1.000
    H134     H        0.35160    0.91600    0.57090    1.000
    C187     C        0.31790    0.05070    0.56970    1.000
    H135     H        0.35100    0.08370    0.56810    1.000
    C188     C        0.26900    0.10140    0.57000    1.000
    C189     C        0.22100    0.04840    0.57430    1.000
    H136     H        0.18720    0.07930    0.57610    1.000
    C190     C        0.22400    0.95040    0.57580    1.000
    H137     H        0.19130    0.91600    0.57750    1.000
    N24      N        0.46910    0.74680    0.91960    1.000
    H138     H        0.48920    0.74660    0.89350    1.000
    C191     C        0.27290    0.50610    0.23320    1.000
    H139     H        0.27180    0.45740    0.20780    1.000
    C192     C        0.22820    0.52060    0.25730    1.000
    H140     H        0.23010    0.56030    0.28720    1.000
    C193     C        0.07730    0.44270    0.20030    1.000
    H141     H        0.04880    0.44680    0.17220    1.000
    C194     C        0.12980    0.47850    0.19420    1.000
    H142     H        0.13650    0.50650    0.16190    1.000
    C195     C        0.17240    0.47230    0.23630    1.000
    C196     C        0.16250    0.43040    0.28450    1.000
    H143     H        0.19100    0.42630    0.31260    1.000
    C197     C        0.11000    0.39460    0.29060    1.000
    H144     H        0.10340    0.36660    0.32290    1.000
    N25      N        0.06740    0.40080    0.24850    1.000
    N26      N        0.42230    0.67120    0.24690    1.000
    C198     C        0.38030    0.69960    0.27690    1.000
    H145     H        0.38460    0.75460    0.29780    1.000
    C199     C        0.33190    0.64560    0.27550    1.000
    H146     H        0.30380    0.66460    0.29560    1.000
    C200     C        0.32540    0.56330    0.24430    1.000
    C201     C        0.36740    0.53490    0.21430    1.000
    H147     H        0.36310    0.47990    0.19330    1.000
    C202     C        0.41590    0.58890    0.21560    1.000
    H148     H        0.44390    0.56990    0.19560    1.000
    O31      O        0.42920    0.80400    0.11260    1.000
    C203     C        0.25750    0.26090    0.56570    1.000
    H149     H        0.22040    0.24230    0.55940    1.000
    C204     C        0.29790    0.21040    0.57310    1.000
    H150     H        0.33530    0.22740    0.57890    1.000
    C205     C        0.27380    0.50710    0.26210    1.000
    H151     H        0.27110    0.48140    0.29590    1.000
    C206     C        0.22720    0.50000    0.22830    1.000
    H152     H        0.22460    0.51300    0.19180    1.000
    C207     C        0.08640    0.44680    0.28400    1.000
    H153     H        0.05820    0.46720    0.30350    1.000
    C208     C        0.13620    0.49740    0.28700    1.000
    H154     H        0.14120    0.55180    0.30840    1.000
    C209     C        0.17840    0.46680    0.25790    1.000
    C210     C        0.17090    0.38560    0.22580    1.000
    H155     H        0.19910    0.36510    0.20640    1.000
    C211     C        0.12120    0.33490    0.22290    1.000
    H156     H        0.11610    0.28050    0.20140    1.000
    N27      N        0.07890    0.36550    0.25190    1.000
    N28      N        0.43210    0.63580    0.24920    1.000
    C212     C        0.42260    0.58610    0.29530    1.000
    H157     H        0.45050    0.58190    0.32400    1.000
    C213     C        0.37140    0.54270    0.29850    1.000
    H158     H        0.36500    0.50950    0.32930    1.000
    C214     C        0.32960    0.54900    0.25560    1.000
    C215     C        0.33910    0.59870    0.20960    1.000
    H159     H        0.31120    0.60280    0.18090    1.000
    C216     C        0.39040    0.64200    0.20640    1.000
    H160     H        0.39670    0.67530    0.17550    1.000
    O32      O        0.42830    0.73200    0.11490    1.000
    Cd5      Cd       0.77004    0.76360    0.07897    1.000
    O33      O        0.77180    0.76780    0.17180    1.000
    O34      O        0.17710    0.73100    0.57250    1.000
    O35      O        0.00600    0.73590    0.66100    1.000
    N29      N        0.77140    0.59840    0.07490    1.000
    O36      O        0.88090    0.75800    0.43820    1.000
    O37      O        0.85470    0.76450    0.14500    1.000
    O38      O        0.17270    0.76080    0.48630    1.000
    N30      N        0.77430    0.92830    0.07150    1.000
    C217     C        0.84880    0.76250    0.23950    1.000
    C218     C        0.90540    0.75850    0.25320    1.000
    H161     H        0.92880    0.75510    0.22640    1.000
    C219     C        0.92800    0.75970    0.30660    1.000
    H162     H        0.96640    0.76080    0.31530    1.000
    C220     C        0.89360    0.75930    0.34700    1.000
    C221     C        0.83730    0.76120    0.33230    1.000
    H163     H        0.81350    0.76130    0.35880    1.000
    C222     C        0.81490    0.76300    0.27920    1.000
    H164     H        0.77650    0.76450    0.27050    1.000
    C223     C        0.99850    0.75050    0.47180    1.000
    C224     C        0.05620    0.75030    0.47500    1.000
    H165     H        0.07340    0.75320    0.44380    1.000
    C225     C        0.08820    0.74570    0.52420    1.000
    C226     C        0.06240    0.74060    0.57080    1.000
    H166     H        0.08390    0.73730    0.60400    1.000
    C227     C        0.00490    0.74060    0.56790    1.000
    C228     C        0.97280    0.74650    0.51840    1.000
    H167     H        0.93420    0.74770    0.51650    1.000
    C229     C        0.82390    0.76500    0.18190    1.000
    C230     C        0.15070    0.74590    0.52750    1.000
    C231     C        0.97670    0.73570    0.61770    1.000
    C232     C        0.91410    0.75540    0.40570    1.000
    C233     C        0.73060    0.98150    0.07200    1.000
    H168     H        0.69610    0.95260    0.07290    1.000
    C234     C        0.73400    0.08310    0.07110    1.000
    H169     H        0.70180    0.11920    0.07160    1.000
    C235     C        0.78300    0.12800    0.06950    1.000
    C236     C        0.82850    0.07140    0.06730    1.000
    H170     H        0.86320    0.09850    0.06460    1.000
    C237     C        0.82250    0.97470    0.06900    1.000
    H171     H        0.85440    0.93770    0.06830    1.000
    C238     C        0.79790    0.23000    0.07210    1.000
    H172     H        0.83510    0.24830    0.07720    1.000
    C239     C        0.75680    0.29830    0.06690    1.000
    H173     H        0.71990    0.27870    0.06130    1.000
    C240     C        0.81840    0.55080    0.07170    1.000
    H174     H        0.85160    0.58400    0.07090    1.000
    C241     C        0.81790    0.44930    0.06970    1.000
    H175     H        0.85100    0.41630    0.06810    1.000
    C242     C        0.76900    0.39860    0.07000    1.000
    C243     C        0.72100    0.45160    0.07430    1.000
    H176     H        0.68720    0.42070    0.07610    1.000
    C244     C        0.72400    0.54960    0.07580    1.000
    H177     H        0.69130    0.58400    0.07750    1.000
    N31      N        0.96910    0.75320    0.41960    1.000
    H178     H        0.98920    0.75340    0.39350    1.000
    C245     C        0.77290    0.99390    0.73320    1.000
    H179     H        0.77180    0.04260    0.70780    1.000
    C246     C        0.72820    0.97940    0.75730    1.000
    H180     H        0.73010    0.93970    0.78720    1.000
    C247     C        0.57730    0.05730    0.70030    1.000
    H181     H        0.54880    0.05320    0.67220    1.000
    C248     C        0.62980    0.02150    0.69420    1.000
    H182     H        0.63650    0.99350    0.66190    1.000
    C249     C        0.67240    0.02770    0.73630    1.000
    C250     C        0.66250    0.06960    0.78450    1.000
    H183     H        0.69100    0.07370    0.81260    1.000
    C251     C        0.61000    0.10540    0.79060    1.000
    H184     H        0.60340    0.13340    0.82290    1.000
    N32      N        0.56740    0.09920    0.74850    1.000
    N33      N        0.92230    0.82880    0.74690    1.000
    C252     C        0.88030    0.80040    0.77690    1.000
    H185     H        0.88460    0.74540    0.79780    1.000
    C253     C        0.83190    0.85440    0.77550    1.000
    H186     H        0.80380    0.83540    0.79560    1.000
    C254     C        0.82540    0.93670    0.74430    1.000
    C255     C        0.86740    0.96510    0.71430    1.000
    H187     H        0.86310    0.02010    0.69330    1.000
    C256     C        0.91590    0.91110    0.71560    1.000
    H188     H        0.94390    0.93010    0.69560    1.000
    O39      O        0.92920    0.69600    0.61260    1.000
    C257     C        0.75750    0.23910    0.06570    1.000
    H189     H        0.72040    0.25770    0.05940    1.000
    C258     C        0.79790    0.28960    0.07310    1.000
    H190     H        0.83530    0.27260    0.07890    1.000
    C259     C        0.77380    0.99290    0.76210    1.000
    H191     H        0.77110    0.01860    0.79590    1.000
    C260     C        0.72720    0.00000    0.72830    1.000
    H192     H        0.72460    0.98700    0.69180    1.000
    C261     C        0.58640    0.05320    0.78400    1.000
    H193     H        0.55820    0.03280    0.80350    1.000
    C262     C        0.63620    0.00260    0.78700    1.000
    H194     H        0.64120    0.94820    0.80840    1.000
    C263     C        0.67840    0.03320    0.75790    1.000
    C264     C        0.67090    0.11440    0.72580    1.000
    H195     H        0.69910    0.13490    0.70640    1.000
    C265     C        0.62120    0.16510    0.72290    1.000
    H196     H        0.61610    0.21950    0.70140    1.000
    N34      N        0.57890    0.13450    0.75190    1.000
    N35      N        0.93210    0.86420    0.74920    1.000
    C266     C        0.92260    0.91390    0.79530    1.000
    H197     H        0.95050    0.91810    0.82400    1.000
    C267     C        0.87140    0.95730    0.79850    1.000
    H198     H        0.86500    0.99050    0.82930    1.000
    C268     C        0.82960    0.95100    0.75560    1.000
    C269     C        0.83910    0.90130    0.70960    1.000
    H199     H        0.81120    0.89720    0.68090    1.000
    C270     C        0.89040    0.85800    0.70640    1.000
    H200     H        0.89670    0.82470    0.67550    1.000
    O40      O        0.92830    0.76800    0.61490    1.000
    Cd6      Cd       0.27004    0.26360    0.07897    1.000
    O41      O        0.27180    0.26780    0.17180    1.000
    O42      O        0.67710    0.23100    0.57250    1.000
    O43      O        0.50600    0.23590    0.66100    1.000
    N36      N        0.27140    0.09840    0.07490    1.000
    O44      O        0.38090    0.25800    0.43820    1.000
    O45      O        0.35470    0.26450    0.14500    1.000
    O46      O        0.67270    0.26080    0.48630    1.000
    N37      N        0.27430    0.42830    0.07150    1.000
    C271     C        0.34880    0.26250    0.23950    1.000
    C272     C        0.40540    0.25850    0.25320    1.000
    H201     H        0.42880    0.25510    0.22640    1.000
    C273     C        0.42800    0.25970    0.30660    1.000
    H202     H        0.46640    0.26080    0.31530    1.000
    C274     C        0.39360    0.25930    0.34700    1.000
    C275     C        0.33730    0.26120    0.33230    1.000
    H203     H        0.31350    0.26130    0.35880    1.000
    C276     C        0.31490    0.26300    0.27920    1.000
    H204     H        0.27650    0.26450    0.27050    1.000
    C277     C        0.49850    0.25050    0.47180    1.000
    C278     C        0.55620    0.25030    0.47500    1.000
    H205     H        0.57340    0.25320    0.44380    1.000
    C279     C        0.58820    0.24570    0.52420    1.000
    C280     C        0.56240    0.24060    0.57080    1.000
    H206     H        0.58390    0.23730    0.60400    1.000
    C281     C        0.50490    0.24060    0.56790    1.000
    C282     C        0.47280    0.24650    0.51840    1.000
    H207     H        0.43420    0.24770    0.51650    1.000
    C283     C        0.32390    0.26500    0.18190    1.000
    C284     C        0.65070    0.24590    0.52750    1.000
    C285     C        0.47670    0.23570    0.61770    1.000
    C286     C        0.41410    0.25540    0.40570    1.000
    C287     C        0.23060    0.48150    0.07200    1.000
    H208     H        0.19610    0.45260    0.07290    1.000
    C288     C        0.23400    0.58310    0.07110    1.000
    H209     H        0.20180    0.61920    0.07160    1.000
    C289     C        0.28300    0.62800    0.06950    1.000
    C290     C        0.32850    0.57140    0.06730    1.000
    H210     H        0.36320    0.59850    0.06460    1.000
    C291     C        0.32250    0.47470    0.06900    1.000
    H211     H        0.35440    0.43770    0.06830    1.000
    C292     C        0.29790    0.73000    0.07210    1.000
    H212     H        0.33510    0.74830    0.07720    1.000
    C293     C        0.25680    0.79830    0.06690    1.000
    H213     H        0.21990    0.77870    0.06130    1.000
    C294     C        0.31840    0.05080    0.07170    1.000
    H214     H        0.35160    0.08400    0.07090    1.000
    C295     C        0.31790    0.94930    0.06970    1.000
    H215     H        0.35100    0.91630    0.06810    1.000
    C296     C        0.26900    0.89860    0.07000    1.000
    C297     C        0.22100    0.95160    0.07430    1.000
    H216     H        0.18720    0.92070    0.07610    1.000
    C298     C        0.22400    0.04960    0.07580    1.000
    H217     H        0.19130    0.08400    0.07750    1.000
    N38      N        0.46910    0.25320    0.41960    1.000
    H218     H        0.48920    0.25340    0.39350    1.000
    C299     C        0.27290    0.49390    0.73320    1.000
    H219     H        0.27180    0.54260    0.70780    1.000
    C300     C        0.22820    0.47940    0.75730    1.000
    H220     H        0.23010    0.43970    0.78720    1.000
    C301     C        0.07730    0.55730    0.70030    1.000
    H221     H        0.04880    0.55320    0.67220    1.000
    C302     C        0.12980    0.52150    0.69420    1.000
    H222     H        0.13650    0.49350    0.66190    1.000
    C303     C        0.17240    0.52770    0.73630    1.000
    C304     C        0.16250    0.56960    0.78450    1.000
    H223     H        0.19100    0.57370    0.81260    1.000
    C305     C        0.11000    0.60540    0.79060    1.000
    H224     H        0.10340    0.63340    0.82290    1.000
    N39      N        0.06740    0.59920    0.74850    1.000
    N40      N        0.42230    0.32880    0.74690    1.000
    C306     C        0.38030    0.30040    0.77690    1.000
    H225     H        0.38460    0.24540    0.79780    1.000
    C307     C        0.33190    0.35440    0.77550    1.000
    H226     H        0.30380    0.33540    0.79560    1.000
    C308     C        0.32540    0.43670    0.74430    1.000
    C309     C        0.36740    0.46510    0.71430    1.000
    H227     H        0.36310    0.52010    0.69330    1.000
    C310     C        0.41590    0.41110    0.71560    1.000
    H228     H        0.44390    0.43010    0.69560    1.000
    O47      O        0.42920    0.19600    0.61260    1.000
    C311     C        0.25750    0.73910    0.06570    1.000
    H229     H        0.22040    0.75770    0.05940    1.000
    C312     C        0.29790    0.78960    0.07310    1.000
    H230     H        0.33530    0.77260    0.07890    1.000
    C313     C        0.27380    0.49290    0.76210    1.000
    H231     H        0.27110    0.51860    0.79590    1.000
    C314     C        0.22720    0.50000    0.72830    1.000
    H232     H        0.22460    0.48700    0.69180    1.000
    C315     C        0.08640    0.55320    0.78400    1.000
    H233     H        0.05820    0.53280    0.80350    1.000
    C316     C        0.13620    0.50260    0.78700    1.000
    H234     H        0.14120    0.44820    0.80840    1.000
    C317     C        0.17840    0.53320    0.75790    1.000
    C318     C        0.17090    0.61440    0.72580    1.000
    H235     H        0.19910    0.63490    0.70640    1.000
    C319     C        0.12120    0.66510    0.72290    1.000
    H236     H        0.11610    0.71950    0.70140    1.000
    N41      N        0.07890    0.63450    0.75190    1.000
    N42      N        0.43210    0.36420    0.74920    1.000
    C320     C        0.42260    0.41390    0.79530    1.000
    H237     H        0.45050    0.41810    0.82400    1.000
    C321     C        0.37140    0.45730    0.79850    1.000
    H238     H        0.36500    0.49050    0.82930    1.000
    C322     C        0.32960    0.45100    0.75560    1.000
    C323     C        0.33910    0.40130    0.70960    1.000
    H239     H        0.31120    0.39720    0.68090    1.000
    C324     C        0.39040    0.35800    0.70640    1.000
    H240     H        0.39670    0.32470    0.67550    1.000
    O48      O        0.42830    0.26800    0.61490    1.000
    Cd7      Cd       0.22996    0.76360    0.42103    1.000
    O49      O        0.22820    0.76780    0.32820    1.000
    O50      O        0.82290    0.73100    0.92750    1.000
    O51      O        0.99400    0.73590    0.83900    1.000
    N43      N        0.22860    0.59840    0.42510    1.000
    O52      O        0.11910    0.75800    0.06180    1.000
    O53      O        0.14530    0.76450    0.35500    1.000
    O54      O        0.82730    0.76080    0.01370    1.000
    N44      N        0.22570    0.92830    0.42850    1.000
    C325     C        0.15120    0.76250    0.26050    1.000
    C326     C        0.09460    0.75850    0.24680    1.000
    H241     H        0.07120    0.75510    0.27360    1.000
    C327     C        0.07200    0.75970    0.19340    1.000
    H242     H        0.03360    0.76080    0.18470    1.000
    C328     C        0.10640    0.75930    0.15300    1.000
    C329     C        0.16270    0.76120    0.16770    1.000
    H243     H        0.18650    0.76130    0.14120    1.000
    C330     C        0.18510    0.76300    0.22080    1.000
    H244     H        0.22350    0.76450    0.22950    1.000
    C331     C        0.00150    0.75050    0.02820    1.000
    C332     C        0.94380    0.75030    0.02500    1.000
    H245     H        0.92660    0.75320    0.05620    1.000
    C333     C        0.91180    0.74570    0.97580    1.000
    C334     C        0.93760    0.74060    0.92920    1.000
    H246     H        0.91610    0.73730    0.89600    1.000
    C335     C        0.99510    0.74060    0.93210    1.000
    C336     C        0.02720    0.74650    0.98160    1.000
    H247     H        0.06580    0.74770    0.98350    1.000
    C337     C        0.17610    0.76500    0.31810    1.000
    C338     C        0.84930    0.74590    0.97250    1.000
    C339     C        0.02330    0.73570    0.88230    1.000
    C340     C        0.08590    0.75540    0.09430    1.000
    C341     C        0.26940    0.98150    0.42800    1.000
    H248     H        0.30390    0.95260    0.42710    1.000
    C342     C        0.26600    0.08310    0.42890    1.000
    H249     H        0.29820    0.11920    0.42840    1.000
    C343     C        0.21700    0.12800    0.43050    1.000
    C344     C        0.17150    0.07140    0.43270    1.000
    H250     H        0.13680    0.09850    0.43540    1.000
    C345     C        0.17750    0.97470    0.43100    1.000
    H251     H        0.14560    0.93770    0.43170    1.000
    C346     C        0.20210    0.23000    0.42790    1.000
    H252     H        0.16490    0.24830    0.42280    1.000
    C347     C        0.24320    0.29830    0.43310    1.000
    H253     H        0.28010    0.27870    0.43870    1.000
    C348     C        0.18160    0.55080    0.42830    1.000
    H254     H        0.14840    0.58400    0.42910    1.000
    C349     C        0.18210    0.44930    0.43030    1.000
    H255     H        0.14900    0.41630    0.43190    1.000
    C350     C        0.23100    0.39860    0.43000    1.000
    C351     C        0.27900    0.45160    0.42570    1.000
    H256     H        0.31280    0.42070    0.42390    1.000
    C352     C        0.27600    0.54960    0.42420    1.000
    H257     H        0.30870    0.58400    0.42250    1.000
    N45      N        0.03090    0.75320    0.08040    1.000
    H258     H        0.01080    0.75340    0.10650    1.000
    C353     C        0.22710    0.99390    0.76680    1.000
    H259     H        0.22820    0.04260    0.79220    1.000
    C354     C        0.27180    0.97940    0.74270    1.000
    H260     H        0.26990    0.93970    0.71280    1.000
    C355     C        0.42270    0.05730    0.79970    1.000
    H261     H        0.45120    0.05320    0.82780    1.000
    C356     C        0.37020    0.02150    0.80580    1.000
    H262     H        0.36350    0.99350    0.83810    1.000
    C357     C        0.32760    0.02770    0.76370    1.000
    C358     C        0.33750    0.06960    0.71550    1.000
    H263     H        0.30900    0.07370    0.68740    1.000
    C359     C        0.39000    0.10540    0.70940    1.000
    H264     H        0.39660    0.13340    0.67710    1.000
    N46      N        0.43260    0.09920    0.75150    1.000
    N47      N        0.07770    0.82880    0.75310    1.000
    C360     C        0.11970    0.80040    0.72310    1.000
    H265     H        0.11540    0.74540    0.70220    1.000
    C361     C        0.16810    0.85440    0.72450    1.000
    H266     H        0.19620    0.83540    0.70440    1.000
    C362     C        0.17460    0.93670    0.75570    1.000
    C363     C        0.13260    0.96510    0.78570    1.000
    H267     H        0.13690    0.02010    0.80670    1.000
    C364     C        0.08410    0.91110    0.78440    1.000
    H268     H        0.05610    0.93010    0.80440    1.000
    O55      O        0.07080    0.69600    0.88740    1.000
    C365     C        0.24250    0.23910    0.43430    1.000
    H269     H        0.27960    0.25770    0.44060    1.000
    C366     C        0.20210    0.28960    0.42690    1.000
    H270     H        0.16470    0.27260    0.42110    1.000
    C367     C        0.22620    0.99290    0.73790    1.000
    H271     H        0.22890    0.01860    0.70410    1.000
    C368     C        0.27280    0.00000    0.77170    1.000
    H272     H        0.27540    0.98700    0.80820    1.000
    C369     C        0.41360    0.05320    0.71600    1.000
    H273     H        0.44180    0.03280    0.69650    1.000
    C370     C        0.36380    0.00260    0.71300    1.000
    H274     H        0.35880    0.94820    0.69160    1.000
    C371     C        0.32160    0.03320    0.74210    1.000
    C372     C        0.32910    0.11440    0.77420    1.000
    H275     H        0.30090    0.13490    0.79360    1.000
    C373     C        0.37880    0.16510    0.77710    1.000
    H276     H        0.38390    0.21950    0.79860    1.000
    N48      N        0.42110    0.13450    0.74810    1.000
    N49      N        0.06790    0.86420    0.75080    1.000
    C374     C        0.07740    0.91390    0.70470    1.000
    H277     H        0.04950    0.91810    0.67600    1.000
    C375     C        0.12860    0.95730    0.70150    1.000
    H278     H        0.13500    0.99050    0.67070    1.000
    C376     C        0.17040    0.95100    0.74440    1.000
    C377     C        0.16090    0.90130    0.79040    1.000
    H279     H        0.18880    0.89720    0.81910    1.000
    C378     C        0.10960    0.85800    0.79360    1.000
    H280     H        0.10330    0.82470    0.82450    1.000
    O56      O        0.07170    0.76800    0.88510    1.000
    Cd8      Cd       0.72996    0.26360    0.42103    1.000
    O57      O        0.72820    0.26780    0.32820    1.000
    O58      O        0.32290    0.23100    0.92750    1.000
    O59      O        0.49400    0.23590    0.83900    1.000
    N50      N        0.72860    0.09840    0.42510    1.000
    O60      O        0.61910    0.25800    0.06180    1.000
    O61      O        0.64530    0.26450    0.35500    1.000
    O62      O        0.32730    0.26080    0.01370    1.000
    N51      N        0.72570    0.42830    0.42850    1.000
    C379     C        0.65120    0.26250    0.26050    1.000
    C380     C        0.59460    0.25850    0.24680    1.000
    H281     H        0.57120    0.25510    0.27360    1.000
    C381     C        0.57200    0.25970    0.19340    1.000
    H282     H        0.53360    0.26080    0.18470    1.000
    C382     C        0.60640    0.25930    0.15300    1.000
    C383     C        0.66270    0.26120    0.16770    1.000
    H283     H        0.68650    0.26130    0.14120    1.000
    C384     C        0.68510    0.26300    0.22080    1.000
    H284     H        0.72350    0.26450    0.22950    1.000
    C385     C        0.50150    0.25050    0.02820    1.000
    C386     C        0.44380    0.25030    0.02500    1.000
    H285     H        0.42660    0.25320    0.05620    1.000
    C387     C        0.41180    0.24570    0.97580    1.000
    C388     C        0.43760    0.24060    0.92920    1.000
    H286     H        0.41610    0.23730    0.89600    1.000
    C389     C        0.49510    0.24060    0.93210    1.000
    C390     C        0.52720    0.24650    0.98160    1.000
    H287     H        0.56580    0.24770    0.98350    1.000
    C391     C        0.67610    0.26500    0.31810    1.000
    C392     C        0.34930    0.24590    0.97250    1.000
    C393     C        0.52330    0.23570    0.88230    1.000
    C394     C        0.58590    0.25540    0.09430    1.000
    C395     C        0.76940    0.48150    0.42800    1.000
    H288     H        0.80390    0.45260    0.42710    1.000
    C396     C        0.76600    0.58310    0.42890    1.000
    H289     H        0.79820    0.61920    0.42840    1.000
    C397     C        0.71700    0.62800    0.43050    1.000
    C398     C        0.67150    0.57140    0.43270    1.000
    H290     H        0.63680    0.59850    0.43540    1.000
    C399     C        0.67750    0.47470    0.43100    1.000
    H291     H        0.64560    0.43770    0.43170    1.000
    C400     C        0.70210    0.73000    0.42790    1.000
    H292     H        0.66490    0.74830    0.42280    1.000
    C401     C        0.74320    0.79830    0.43310    1.000
    H293     H        0.78010    0.77870    0.43870    1.000
    C402     C        0.68160    0.05080    0.42830    1.000
    H294     H        0.64840    0.08400    0.42910    1.000
    C403     C        0.68210    0.94930    0.43030    1.000
    H295     H        0.64900    0.91630    0.43190    1.000
    C404     C        0.73100    0.89860    0.43000    1.000
    C405     C        0.77900    0.95160    0.42570    1.000
    H296     H        0.81280    0.92070    0.42390    1.000
    C406     C        0.77600    0.04960    0.42420    1.000
    H297     H        0.80870    0.08400    0.42250    1.000
    N52      N        0.53090    0.25320    0.08040    1.000
    H298     H        0.51080    0.25340    0.10650    1.000
    C407     C        0.72710    0.49390    0.76680    1.000
    H299     H        0.72820    0.54260    0.79220    1.000
    C408     C        0.77180    0.47940    0.74270    1.000
    H300     H        0.76990    0.43970    0.71280    1.000
    C409     C        0.92270    0.55730    0.79970    1.000
    H301     H        0.95120    0.55320    0.82780    1.000
    C410     C        0.87020    0.52150    0.80580    1.000
    H302     H        0.86350    0.49350    0.83810    1.000
    C411     C        0.82760    0.52770    0.76370    1.000
    C412     C        0.83750    0.56960    0.71550    1.000
    H303     H        0.80900    0.57370    0.68740    1.000
    C413     C        0.89000    0.60540    0.70940    1.000
    H304     H        0.89660    0.63340    0.67710    1.000
    N53      N        0.93260    0.59920    0.75150    1.000
    N54      N        0.57770    0.32880    0.75310    1.000
    C414     C        0.61970    0.30040    0.72310    1.000
    H305     H        0.61540    0.24540    0.70220    1.000
    C415     C        0.66810    0.35440    0.72450    1.000
    H306     H        0.69620    0.33540    0.70440    1.000
    C416     C        0.67460    0.43670    0.75570    1.000
    C417     C        0.63260    0.46510    0.78570    1.000
    H307     H        0.63690    0.52010    0.80670    1.000
    C418     C        0.58410    0.41110    0.78440    1.000
    H308     H        0.55610    0.43010    0.80440    1.000
    O63      O        0.57080    0.19600    0.88740    1.000
    C419     C        0.74250    0.73910    0.43430    1.000
    H309     H        0.77960    0.75770    0.44060    1.000
    C420     C        0.70210    0.78960    0.42690    1.000
    H310     H        0.66470    0.77260    0.42110    1.000
    C421     C        0.72620    0.49290    0.73790    1.000
    H311     H        0.72890    0.51860    0.70410    1.000
    C422     C        0.77280    0.50000    0.77170    1.000
    H312     H        0.77540    0.48700    0.80820    1.000
    C423     C        0.91360    0.55320    0.71600    1.000
    H313     H        0.94180    0.53280    0.69650    1.000
    C424     C        0.86380    0.50260    0.71300    1.000
    H314     H        0.85880    0.44820    0.69160    1.000
    C425     C        0.82160    0.53320    0.74210    1.000
    C426     C        0.82910    0.61440    0.77420    1.000
    H315     H        0.80090    0.63490    0.79360    1.000
    C427     C        0.87880    0.66510    0.77710    1.000
    H316     H        0.88390    0.71950    0.79860    1.000
    N55      N        0.92110    0.63450    0.74810    1.000
    N56      N        0.56790    0.36420    0.75080    1.000
    C428     C        0.57740    0.41390    0.70470    1.000
    H317     H        0.54950    0.41810    0.67600    1.000
    C429     C        0.62860    0.45730    0.70150    1.000
    H318     H        0.63500    0.49050    0.67070    1.000
    C430     C        0.67040    0.45100    0.74440    1.000
    C431     C        0.66090    0.40130    0.79040    1.000
    H319     H        0.68880    0.39720    0.81910    1.000
    C432     C        0.60960    0.35800    0.79360    1.000
    H320     H        0.60330    0.32470    0.82450    1.000
    O64      O        0.57170    0.26800    0.88510    1.000
    Cd9      Cd       0.00000    0.26758    0.25000    1.000
    Cd10     Cd       0.50000    0.76758    0.25000    1.000
    Cd11     Cd       0.00000    0.73242    0.75000    1.000
    Cd12     Cd       0.50000    0.23242    0.75000    1.000
