# CIF file generated by openbabel 3.1.0, see https://openbabel.org
data_I
_chemical_name_common 'CEZNAY_clean'
_cell_length_a 7.9714
_cell_length_b 9.7403
_cell_length_c 21.312
_cell_angle_alpha 90
_cell_angle_beta 90
_cell_angle_gamma 114.154
_space_group_name_H-M_alt 'P 1'
_space_group_name_Hall 'P 1'
loop_
    _symmetry_equiv_pos_as_xyz
    x,y,z
loop_
    _atom_site_label
    _atom_site_type_symbol
    _atom_site_fract_x
    _atom_site_fract_y
    _atom_site_fract_z
    _atom_site_occupancy
    Na1      Na       0.88990    0.00000    0.50000    1.000
    Na2      Na       0.11010    0.00000    0.00000    1.000
    U1       U        0.45905    0.85680    0.61808    1.000
    U2       U        0.54095    0.14320    0.11808    1.000
    U3       U        0.39775    0.85680    0.88192    1.000
    U4       U        0.60225    0.14320    0.38192    1.000
    H1       H        0.98450    0.66360    0.54300    1.000
    H2       H        0.98290    0.39920    0.54690    1.000
    H3       H        0.85510    0.44500    0.72000    1.000
    H4       H        0.01550    0.33640    0.04300    1.000
    H5       H        0.01710    0.60080    0.04690    1.000
    H6       H        0.14490    0.55500    0.22000    1.000
    H7       H        0.67910    0.66360    0.95700    1.000
    H8       H        0.41630    0.39920    0.95310    1.000
    H9       H        0.58990    0.44500    0.78000    1.000
    H10      H        0.32090    0.33640    0.45700    1.000
    H11      H        0.58370    0.60080    0.45310    1.000
    H12      H        0.41010    0.55500    0.28000    1.000
    C1       C        0.62820    0.65900    0.58630    1.000
    C2       C        0.71990    0.55600    0.57460    1.000
    C3       C        0.95340    0.67300    0.72230    1.000
    C4       C        0.72410    0.33420    0.57780    1.000
    C5       C        0.63550    0.17300    0.58900    1.000
    C6       C        0.88820    0.57460    0.55530    1.000
    C7       C        0.88660    0.42520    0.55770    1.000
    C8       C        0.12300    0.74040    0.68710    1.000
    C9       C        0.83890    0.52980    0.73310    1.000
    C10      C        0.37180    0.34100    0.08630    1.000
    C11      C        0.28010    0.44400    0.07460    1.000
    C12      C        0.04660    0.32700    0.22230    1.000
    C13      C        0.27590    0.66580    0.07780    1.000
    C14      C        0.36450    0.82700    0.08900    1.000
    C15      C        0.11180    0.42540    0.05530    1.000
    C16      C        0.11340    0.57480    0.05770    1.000
    C17      C        0.87700    0.25960    0.18710    1.000
    C18      C        0.16110    0.47020    0.23310    1.000
    C19      C        0.03080    0.65900    0.91370    1.000
    C20      C        0.83610    0.55600    0.92540    1.000
    C21      C        0.71960    0.67300    0.77770    1.000
    C22      C        0.61010    0.33420    0.92220    1.000
    C23      C        0.53750    0.17300    0.91100    1.000
    C24      C        0.68640    0.57460    0.94470    1.000
    C25      C        0.53860    0.42520    0.94230    1.000
    C26      C        0.61740    0.74040    0.81290    1.000
    C27      C        0.69090    0.52980    0.76690    1.000
    C28      C        0.96920    0.34100    0.41370    1.000
    C29      C        0.16390    0.44400    0.42540    1.000
    C30      C        0.28040    0.32700    0.27770    1.000
    C31      C        0.38990    0.66580    0.42220    1.000
    C32      C        0.46250    0.82700    0.41100    1.000
    C33      C        0.31360    0.42540    0.44470    1.000
    C34      C        0.46140    0.57480    0.44230    1.000
    C35      C        0.38260    0.25960    0.31290    1.000
    C36      C        0.30910    0.47020    0.26690    1.000
    O1       O        0.47790    0.61400    0.61090    1.000
    O2       O        0.71090    0.79980    0.57000    1.000
    O3       O        0.48020    0.11380    0.61670    1.000
    O4       O        0.19290    0.87880    0.67170    1.000
    O5       O        0.71620    0.08880    0.57450    1.000
    O6       O        0.20070    0.65560    0.66900    1.000
    O7       O        0.61420    0.40980    0.58980    1.000
    O8       O        0.52210    0.38600    0.11090    1.000
    O9       O        0.28910    0.20020    0.07000    1.000
    O10      O        0.51980    0.88620    0.11670    1.000
    O11      O        0.80710    0.12120    0.17170    1.000
    O12      O        0.28380    0.91120    0.07450    1.000
    O13      O        0.79930    0.34440    0.16900    1.000
    O14      O        0.38580    0.59020    0.08980    1.000
    O15      O        0.13610    0.61400    0.88910    1.000
    O16      O        0.08890    0.79980    0.93000    1.000
    O17      O        0.63360    0.11380    0.88330    1.000
    O18      O        0.68590    0.87880    0.82830    1.000
    O19      O        0.37260    0.08880    0.92550    1.000
    O20      O        0.45490    0.65560    0.83100    1.000
    O21      O        0.79560    0.40980    0.91020    1.000
    O22      O        0.86390    0.38600    0.38910    1.000
    O23      O        0.91110    0.20020    0.43000    1.000
    O24      O        0.36640    0.88620    0.38330    1.000
    O25      O        0.31410    0.12120    0.32830    1.000
    O26      O        0.62740    0.91120    0.42550    1.000
    O27      O        0.54510    0.34440    0.33100    1.000
    O28      O        0.20440    0.59020    0.41020    1.000
    O29      O        0.88390    0.76780    0.75000    1.000
    O30      O        0.11610    0.23220    0.25000    1.000
