# CIF file generated by openbabel 3.1.0, see https://openbabel.org
data_I
_chemical_name_common 'image0'
_cell_length_a 15.317
_cell_length_b 32.467
_cell_length_c 10.015
_cell_angle_alpha 90
_cell_angle_beta 107.51
_cell_angle_gamma 90
_space_group_name_H-M_alt 'P 1'
_space_group_name_Hall 'P 1'
loop_
    _symmetry_equiv_pos_as_xyz
    x,y,z
loop_
    _atom_site_label
    _atom_site_type_symbol
    _atom_site_fract_x
    _atom_site_fract_y
    _atom_site_fract_z
    _atom_site_occupancy
    Cu1      Cu       0.65443    0.72672    0.00032    1.000
    Cu2      Cu       0.50863    0.78565    0.02590    1.000
    Cu3      Cu       0.58059    0.78382    0.76377    1.000
    O1       O        0.61860    0.78446    0.96650    1.000
    H1       H        0.65960    0.80200    0.00530    1.000
    O2       O        0.52950    0.84270    0.76320    1.000
    O3       O        0.46580    0.83957    0.93920    1.000
    O4       O        0.70820    0.77411    0.75400    1.000
    O5       O        0.76460    0.73478    0.94520    1.000
    O6       O        0.54480    0.72619    0.06580    1.000
    H2       H        0.50390    0.70960    0.01980    1.000
    O7       O        0.09580    0.65790    0.84300    1.000
    O8       O        0.02770    0.65440    0.96070    1.000
    O9       O        0.10940    0.65660    0.50540    1.000
    O10      O        0.00450    0.68440    0.56370    1.000
    O11      O        0.31340    0.96810    0.01110    1.000
    O12      O        0.23380    0.99700    0.80690    1.000
    O13      O        0.33090    0.02710    0.37220    1.000
    O14      O        0.29020    0.98100    0.48710    1.000
    O15      O        0.40220    0.71842    0.58760    1.000
    O16      O        0.45610    0.75955    0.77560    1.000
    O17      O        0.40020    0.18477    0.74420    1.000
    O18      O        0.33800    0.16861    0.51990    1.000
    C1       C        0.48670    0.85720    0.84050    1.000
    C2       C        0.45740    0.90124    0.81380    1.000
    C3       C        0.49810    0.92630    0.73840    1.000
    H3       H        0.54240    0.91550    0.70200    1.000
    C4       C        0.47350    0.96690    0.71710    1.000
    H4       H        0.50520    0.98360    0.67230    1.000
    C5       C        0.40410    0.98384    0.75920    1.000
    C6       C        0.36470    0.95890    0.83610    1.000
    C7       C        0.39010    0.91796    0.86390    1.000
    H5       H        0.36210    0.90180    0.91590    1.000
    C8       C        0.38300    0.02898    0.73250    1.000
    C9       C        0.34430    0.04497    0.59950    1.000
    C10      C        0.33640    0.08666    0.57290    1.000
    H6       H        0.30770    0.09620    0.48290    1.000
    C11      C        0.37130    0.11384    0.68030    1.000
    C12      C        0.40950    0.09860    0.80900    1.000
    H7       H        0.43290    0.11670    0.88320    1.000
    C13      C        0.41490    0.05650    0.83460    1.000
    H8       H        0.44150    0.04720    0.92560    1.000
    C14      C        0.37030    0.15934    0.64980    1.000
    C15      C        0.77130    0.75340    0.83870    1.000
    C16      C        0.86010    0.75134    0.81230    1.000
    C17      C        0.91730    0.71770    0.86510    1.000
    H9       H        0.89830    0.69720    0.91480    1.000
    C18      C        0.00160    0.71510    0.84320    1.000
    C19      C        0.03300    0.74440    0.76530    1.000
    C20      C        0.97630    0.77790    0.71800    1.000
    H10      H        0.99580    0.79850    0.66940    1.000
    C21      C        0.89190    0.78187    0.73990    1.000
    H11      H        0.85610    0.80500    0.70650    1.000
    C22      C        0.12320    0.74270    0.73530    1.000
    C23      C        0.18600    0.77350    0.78850    1.000
    H12      H        0.16880    0.79550    0.83450    1.000
    C24      C        0.27350    0.77290    0.77620    1.000
    H13      H        0.31500    0.79360    0.81630    1.000
    C25      C        0.29850    0.74106    0.70350    1.000
    C26      C        0.23580    0.71104    0.64290    1.000
    H14      H        0.25220    0.69010    0.59160    1.000
    C27      C        0.15020    0.71150    0.65690    1.000
    C28      C        0.39360    0.73946    0.68880    1.000
    N1       N        0.28740    0.97350    0.88340    1.000
    N2       N        0.06020    0.68150    0.90630    1.000
    N3       N        0.08590    0.67950    0.58570    1.000
    N4       N        0.30870    0.01700    0.47500    1.000
    O19      O        0.14250    0.68790    0.95050    1.000
    O20      O        0.11980    0.64590    0.57500    1.000
    O21      O        0.25080    0.94950    0.94500    1.000
    O22      O        0.25840    0.00830    0.87670    1.000
    O23      O        0.26320    0.03220    0.36530    1.000
    O24      O        0.26200    0.99050    0.50500    1.000
    Cu4      Cu       0.34557    0.22672    0.49968    1.000
    Cu5      Cu       0.49137    0.28565    0.47410    1.000
    Cu6      Cu       0.41941    0.28382    0.73623    1.000
    O25      O        0.38140    0.28446    0.53350    1.000
    H15      H        0.34040    0.30200    0.49470    1.000
    O26      O        0.47050    0.34270    0.73680    1.000
    O27      O        0.53420    0.33957    0.56080    1.000
    O28      O        0.29180    0.27411    0.74600    1.000
    O29      O        0.23540    0.23478    0.55480    1.000
    O30      O        0.45520    0.22619    0.43420    1.000
    H16      H        0.49610    0.20960    0.48020    1.000
    O31      O        0.90420    0.15790    0.65700    1.000
    O32      O        0.97230    0.15440    0.53930    1.000
    O33      O        0.89060    0.15660    0.99460    1.000
    O34      O        0.99550    0.18440    0.93630    1.000
    O35      O        0.68660    0.46810    0.48890    1.000
    O36      O        0.76620    0.49700    0.69310    1.000
    O37      O        0.66910    0.52710    0.12780    1.000
    O38      O        0.70980    0.48100    0.01290    1.000
    O39      O        0.59780    0.21842    0.91240    1.000
    O40      O        0.54390    0.25955    0.72440    1.000
    O41      O        0.59980    0.68477    0.75580    1.000
    O42      O        0.66200    0.66861    0.98010    1.000
    C29      C        0.51330    0.35720    0.65950    1.000
    C30      C        0.54260    0.40124    0.68620    1.000
    C31      C        0.50190    0.42630    0.76160    1.000
    H17      H        0.45760    0.41550    0.79800    1.000
    C32      C        0.52650    0.46690    0.78290    1.000
    H18      H        0.49480    0.48360    0.82770    1.000
    C33      C        0.59590    0.48384    0.74080    1.000
    C34      C        0.63530    0.45890    0.66390    1.000
    C35      C        0.60990    0.41796    0.63610    1.000
    H19      H        0.63790    0.40180    0.58410    1.000
    C36      C        0.61700    0.52898    0.76750    1.000
    C37      C        0.65570    0.54497    0.90050    1.000
    C38      C        0.66360    0.58666    0.92710    1.000
    H20      H        0.69230    0.59620    0.01710    1.000
    C39      C        0.62870    0.61384    0.81970    1.000
    C40      C        0.59050    0.59860    0.69100    1.000
    H21      H        0.56710    0.61670    0.61680    1.000
    C41      C        0.58510    0.55650    0.66540    1.000
    H22      H        0.55850    0.54720    0.57440    1.000
    C42      C        0.62970    0.65934    0.85020    1.000
    C43      C        0.22870    0.25340    0.66130    1.000
    C44      C        0.13990    0.25134    0.68770    1.000
    C45      C        0.08270    0.21770    0.63490    1.000
    H23      H        0.10170    0.19720    0.58520    1.000
    C46      C        0.99840    0.21510    0.65680    1.000
    C47      C        0.96700    0.24440    0.73470    1.000
    C48      C        0.02370    0.27790    0.78200    1.000
    H24      H        0.00420    0.29850    0.83060    1.000
    C49      C        0.10810    0.28187    0.76010    1.000
    H25      H        0.14390    0.30500    0.79350    1.000
    C50      C        0.87680    0.24270    0.76470    1.000
    C51      C        0.81400    0.27350    0.71150    1.000
    H26      H        0.83120    0.29550    0.66550    1.000
    C52      C        0.72650    0.27290    0.72380    1.000
    H27      H        0.68500    0.29360    0.68370    1.000
    C53      C        0.70150    0.24106    0.79650    1.000
    C54      C        0.76420    0.21104    0.85710    1.000
    H28      H        0.74780    0.19010    0.90840    1.000
    C55      C        0.84980    0.21150    0.84310    1.000
    C56      C        0.60640    0.23946    0.81120    1.000
    N5       N        0.71260    0.47350    0.61660    1.000
    N6       N        0.93980    0.18150    0.59370    1.000
    N7       N        0.91410    0.17950    0.91430    1.000
    N8       N        0.69130    0.51700    0.02500    1.000
    O43      O        0.85750    0.18790    0.54950    1.000
    O44      O        0.88020    0.14590    0.92500    1.000
    O45      O        0.74920    0.44950    0.55500    1.000
    O46      O        0.74160    0.50830    0.62330    1.000
    O47      O        0.73680    0.53220    0.13470    1.000
    O48      O        0.73800    0.49050    0.99500    1.000
    Cu7      Cu       0.34557    0.27328    0.99968    1.000
    Cu8      Cu       0.49137    0.21435    0.97410    1.000
    Cu9      Cu       0.41941    0.21618    0.23623    1.000
    O49      O        0.38140    0.21554    0.03350    1.000
    H29      H        0.34040    0.19800    0.99470    1.000
    O50      O        0.47050    0.15730    0.23680    1.000
    O51      O        0.53420    0.16043    0.06080    1.000
    O52      O        0.29180    0.22589    0.24600    1.000
    O53      O        0.23540    0.26522    0.05480    1.000
    O54      O        0.45520    0.27381    0.93420    1.000
    H30      H        0.49610    0.29040    0.98020    1.000
    O55      O        0.90420    0.34210    0.15700    1.000
    O56      O        0.97230    0.34560    0.03930    1.000
    O57      O        0.89060    0.34340    0.49460    1.000
    O58      O        0.99550    0.31560    0.43630    1.000
    O59      O        0.68660    0.03190    0.98890    1.000
    O60      O        0.76620    0.00300    0.19310    1.000
    O61      O        0.66910    0.97290    0.62780    1.000
    O62      O        0.70980    0.01900    0.51290    1.000
    O63      O        0.59780    0.28158    0.41240    1.000
    O64      O        0.54390    0.24045    0.22440    1.000
    O65      O        0.59980    0.81523    0.25580    1.000
    O66      O        0.66200    0.83139    0.48010    1.000
    C57      C        0.51330    0.14280    0.15950    1.000
    C58      C        0.54260    0.09876    0.18620    1.000
    C59      C        0.50190    0.07370    0.26160    1.000
    H31      H        0.45760    0.08450    0.29800    1.000
    C60      C        0.52650    0.03310    0.28290    1.000
    H32      H        0.49480    0.01640    0.32770    1.000
    C61      C        0.59590    0.01616    0.24080    1.000
    C62      C        0.63530    0.04110    0.16390    1.000
    C63      C        0.60990    0.08204    0.13610    1.000
    H33      H        0.63790    0.09820    0.08410    1.000
    C64      C        0.61700    0.97102    0.26750    1.000
    C65      C        0.65570    0.95503    0.40050    1.000
    C66      C        0.66360    0.91334    0.42710    1.000
    H34      H        0.69230    0.90380    0.51710    1.000
    C67      C        0.62870    0.88616    0.31970    1.000
    C68      C        0.59050    0.90140    0.19100    1.000
    H35      H        0.56710    0.88330    0.11680    1.000
    C69      C        0.58510    0.94350    0.16540    1.000
    H36      H        0.55850    0.95280    0.07440    1.000
    C70      C        0.62970    0.84066    0.35020    1.000
    C71      C        0.22870    0.24660    0.16130    1.000
    C72      C        0.13990    0.24866    0.18770    1.000
    C73      C        0.08270    0.28230    0.13490    1.000
    H37      H        0.10170    0.30280    0.08520    1.000
    C74      C        0.99840    0.28490    0.15680    1.000
    C75      C        0.96700    0.25560    0.23470    1.000
    C76      C        0.02370    0.22210    0.28200    1.000
    H38      H        0.00420    0.20150    0.33060    1.000
    C77      C        0.10810    0.21813    0.26010    1.000
    H39      H        0.14390    0.19500    0.29350    1.000
    C78      C        0.87680    0.25730    0.26470    1.000
    C79      C        0.81400    0.22650    0.21150    1.000
    H40      H        0.83120    0.20450    0.16550    1.000
    C80      C        0.72650    0.22710    0.22380    1.000
    H41      H        0.68500    0.20640    0.18370    1.000
    C81      C        0.70150    0.25894    0.29650    1.000
    C82      C        0.76420    0.28896    0.35710    1.000
    H42      H        0.74780    0.30990    0.40840    1.000
    C83      C        0.84980    0.28850    0.34310    1.000
    C84      C        0.60640    0.26054    0.31120    1.000
    N9       N        0.71260    0.02650    0.11660    1.000
    N10      N        0.93980    0.31850    0.09370    1.000
    N11      N        0.91410    0.32050    0.41430    1.000
    N12      N        0.69130    0.98300    0.52500    1.000
    O67      O        0.85750    0.31210    0.04950    1.000
    O68      O        0.88020    0.35410    0.42500    1.000
    O69      O        0.74920    0.05050    0.05500    1.000
    O70      O        0.74160    0.99170    0.12330    1.000
    O71      O        0.73680    0.96780    0.63470    1.000
    O72      O        0.73800    0.00950    0.49500    1.000
    Cu10     Cu       0.65443    0.77328    0.50032    1.000
    Cu11     Cu       0.50863    0.71435    0.52590    1.000
    Cu12     Cu       0.58059    0.71618    0.26377    1.000
    O73      O        0.61860    0.71554    0.46650    1.000
    H43      H        0.65960    0.69800    0.50530    1.000
    O74      O        0.52950    0.65730    0.26320    1.000
    O75      O        0.46580    0.66043    0.43920    1.000
    O76      O        0.70820    0.72589    0.25400    1.000
    O77      O        0.76460    0.76522    0.44520    1.000
    O78      O        0.54480    0.77381    0.56580    1.000
    H44      H        0.50390    0.79040    0.51980    1.000
    O79      O        0.09580    0.84210    0.34300    1.000
    O80      O        0.02770    0.84560    0.46070    1.000
    O81      O        0.10940    0.84340    0.00540    1.000
    O82      O        0.00450    0.81560    0.06370    1.000
    O83      O        0.31340    0.53190    0.51110    1.000
    O84      O        0.23380    0.50300    0.30690    1.000
    O85      O        0.33090    0.47290    0.87220    1.000
    O86      O        0.29020    0.51900    0.98710    1.000
    O87      O        0.40220    0.78158    0.08760    1.000
    O88      O        0.45610    0.74045    0.27560    1.000
    O89      O        0.40020    0.31523    0.24420    1.000
    O90      O        0.33800    0.33139    0.01990    1.000
    C85      C        0.48670    0.64280    0.34050    1.000
    C86      C        0.45740    0.59876    0.31380    1.000
    C87      C        0.49810    0.57370    0.23840    1.000
    H45      H        0.54240    0.58450    0.20200    1.000
    C88      C        0.47350    0.53310    0.21710    1.000
    H46      H        0.50520    0.51640    0.17230    1.000
    C89      C        0.40410    0.51616    0.25920    1.000
    C90      C        0.36470    0.54110    0.33610    1.000
    C91      C        0.39010    0.58204    0.36390    1.000
    H47      H        0.36210    0.59820    0.41590    1.000
    C92      C        0.38300    0.47102    0.23250    1.000
    C93      C        0.34430    0.45503    0.09950    1.000
    C94      C        0.33640    0.41334    0.07290    1.000
    H48      H        0.30770    0.40380    0.98290    1.000
    C95      C        0.37130    0.38616    0.18030    1.000
    C96      C        0.40950    0.40140    0.30900    1.000
    H49      H        0.43290    0.38330    0.38320    1.000
    C97      C        0.41490    0.44350    0.33460    1.000
    H50      H        0.44150    0.45280    0.42560    1.000
    C98      C        0.37030    0.34066    0.14980    1.000
    C99      C        0.77130    0.74660    0.33870    1.000
    C100     C        0.86010    0.74866    0.31230    1.000
    C101     C        0.91730    0.78230    0.36510    1.000
    H51      H        0.89830    0.80280    0.41480    1.000
    C102     C        0.00160    0.78490    0.34320    1.000
    C103     C        0.03300    0.75560    0.26530    1.000
    C104     C        0.97630    0.72210    0.21800    1.000
    H52      H        0.99580    0.70150    0.16940    1.000
    C105     C        0.89190    0.71813    0.23990    1.000
    H53      H        0.85610    0.69500    0.20650    1.000
    C106     C        0.12320    0.75730    0.23530    1.000
    C107     C        0.18600    0.72650    0.28850    1.000
    H54      H        0.16880    0.70450    0.33450    1.000
    C108     C        0.27350    0.72710    0.27620    1.000
    H55      H        0.31500    0.70640    0.31630    1.000
    C109     C        0.29850    0.75894    0.20350    1.000
    C110     C        0.23580    0.78896    0.14290    1.000
    H56      H        0.25220    0.80990    0.09160    1.000
    C111     C        0.15020    0.78850    0.15690    1.000
    C112     C        0.39360    0.76054    0.18880    1.000
    N13      N        0.28740    0.52650    0.38340    1.000
    N14      N        0.06020    0.81850    0.40630    1.000
    N15      N        0.08590    0.82050    0.08570    1.000
    N16      N        0.30870    0.48300    0.97500    1.000
    O91      O        0.14250    0.81210    0.45050    1.000
    O92      O        0.11980    0.85410    0.07500    1.000
    O93      O        0.25080    0.55050    0.44500    1.000
    O94      O        0.25840    0.49170    0.37670    1.000
    O95      O        0.26320    0.46780    0.86530    1.000
    O96      O        0.26200    0.50950    0.00500    1.000
