# CIF file generated by openbabel 3.1.0, see https://openbabel.org
data_I
_chemical_name_common 'image0'
_cell_length_a 17.246
_cell_length_b 17.246
_cell_length_c 14.135
_cell_angle_alpha 90
_cell_angle_beta 90
_cell_angle_gamma 120
_space_group_name_H-M_alt 'P 1'
_space_group_name_Hall 'P 1'
loop_
    _symmetry_equiv_pos_as_xyz
    x,y,z
loop_
    _atom_site_label
    _atom_site_type_symbol
    _atom_site_fract_x
    _atom_site_fract_y
    _atom_site_fract_z
    _atom_site_occupancy
    O1       O        0.64270    0.42470    0.18270    1.000
    N1       N        0.49440    0.60360    0.08950    1.000
    N2       N        0.44200    0.66730    0.98950    1.000
    C1       C        0.54070    0.50800    0.16980    1.000
    H1       H        0.57190    0.50880    0.11570    1.000
    C2       C        0.49550    0.55340    0.17150    1.000
    C3       C        0.42370    0.61220    0.06190    1.000
    H2       H        0.36790    0.58240    0.09100    1.000
    C4       C        0.56530    0.65760    0.02890    1.000
    C5       C        0.65150    0.67540    0.02450    1.000
    H3       H        0.67350    0.64980    0.06680    1.000
    C6       C        0.70520    0.73350    0.95380    1.000
    H4       H        0.76450    0.74730    0.94790    1.000
    C7       C        0.67000    0.77140    0.89110    1.000
    H5       H        0.70700    0.81060    0.84470    1.000
    C8       C        0.58510    0.75300    0.89600    1.000
    H6       H        0.56270    0.77770    0.85310    1.000
    C9       C        0.53090    0.69540    0.96780    1.000
    O2       O        0.57530    0.21800    0.18270    1.000
    N3       N        0.39640    0.89080    0.08950    1.000
    N4       N        0.33270    0.77470    0.98950    1.000
    C10      C        0.49200    0.03270    0.16980    1.000
    H7       H        0.49120    0.06310    0.11570    1.000
    C11      C        0.44660    0.94210    0.17150    1.000
    C12      C        0.38780    0.81150    0.06190    1.000
    H8       H        0.41760    0.78550    0.09100    1.000
    C13      C        0.34240    0.90770    0.02890    1.000
    C14      C        0.32460    0.97610    0.02450    1.000
    H9       H        0.35020    0.02370    0.06680    1.000
    C15      C        0.26650    0.97170    0.95380    1.000
    H10      H        0.25270    0.01720    0.94790    1.000
    C16      C        0.22860    0.89860    0.89110    1.000
    H11      H        0.18940    0.89640    0.84470    1.000
    C17      C        0.24700    0.83210    0.89600    1.000
    H12      H        0.22230    0.78500    0.85310    1.000
    C18      C        0.30460    0.83550    0.96780    1.000
    O3       O        0.78200    0.35730    0.18270    1.000
    N5       N        0.10920    0.50560    0.08950    1.000
    N6       N        0.22530    0.55800    0.98950    1.000
    C19      C        0.96730    0.45930    0.16980    1.000
    H13      H        0.93690    0.42810    0.11570    1.000
    C20      C        0.05790    0.50450    0.17150    1.000
    C21      C        0.18850    0.57630    0.06190    1.000
    H14      H        0.21450    0.63210    0.09100    1.000
    C22      C        0.09230    0.43470    0.02890    1.000
    C23      C        0.02390    0.34850    0.02450    1.000
    H15      H        0.97630    0.32650    0.06680    1.000
    C24      C        0.02830    0.29480    0.95380    1.000
    H16      H        0.98280    0.23550    0.94790    1.000
    C25      C        0.10140    0.33000    0.89110    1.000
    H17      H        0.10360    0.29300    0.84470    1.000
    C26      C        0.16790    0.41490    0.89600    1.000
    H18      H        0.21500    0.43730    0.85310    1.000
    C27      C        0.16450    0.46910    0.96780    1.000
    O4       O        0.57530    0.35730    0.31730    1.000
    N7       N        0.39640    0.50560    0.41050    1.000
    N8       N        0.33270    0.55800    0.51050    1.000
    C28      C        0.49200    0.45930    0.33020    1.000
    H19      H        0.49120    0.42810    0.38430    1.000
    C29      C        0.44660    0.50450    0.32850    1.000
    C30      C        0.38780    0.57630    0.43810    1.000
    H20      H        0.41760    0.63210    0.40900    1.000
    C31      C        0.34240    0.43470    0.47110    1.000
    C32      C        0.32460    0.34850    0.47550    1.000
    H21      H        0.35020    0.32650    0.43320    1.000
    C33      C        0.26650    0.29480    0.54620    1.000
    H22      H        0.25270    0.23550    0.55210    1.000
    C34      C        0.22860    0.33000    0.60890    1.000
    H23      H        0.18940    0.29300    0.65530    1.000
    C35      C        0.24700    0.41490    0.60400    1.000
    H24      H        0.22230    0.43730    0.64690    1.000
    C36      C        0.30460    0.46910    0.53220    1.000
    O5       O        0.78200    0.42470    0.31730    1.000
    N9       N        0.10920    0.60360    0.41050    1.000
    N10      N        0.22530    0.66730    0.51050    1.000
    C37      C        0.96730    0.50800    0.33020    1.000
    H25      H        0.93690    0.50880    0.38430    1.000
    C38      C        0.05790    0.55340    0.32850    1.000
    C39      C        0.18850    0.61220    0.43810    1.000
    H26      H        0.21450    0.58240    0.40900    1.000
    C40      C        0.09230    0.65760    0.47110    1.000
    C41      C        0.02390    0.67540    0.47550    1.000
    H27      H        0.97630    0.64980    0.43320    1.000
    C42      C        0.02830    0.73350    0.54620    1.000
    H28      H        0.98280    0.74730    0.55210    1.000
    C43      C        0.10140    0.77140    0.60890    1.000
    H29      H        0.10360    0.81060    0.65530    1.000
    C44      C        0.16790    0.75300    0.60400    1.000
    H30      H        0.21500    0.77770    0.64690    1.000
    C45      C        0.16450    0.69540    0.53220    1.000
    O6       O        0.64270    0.21800    0.31730    1.000
    N11      N        0.49440    0.89080    0.41050    1.000
    N12      N        0.44200    0.77470    0.51050    1.000
    C46      C        0.54070    0.03270    0.33020    1.000
    H31      H        0.57190    0.06310    0.38430    1.000
    C47      C        0.49550    0.94210    0.32850    1.000
    C48      C        0.42370    0.81150    0.43810    1.000
    H32      H        0.36790    0.78550    0.40900    1.000
    C49      C        0.56530    0.90770    0.47110    1.000
    C50      C        0.65150    0.97610    0.47550    1.000
    H33      H        0.67350    0.02370    0.43320    1.000
    C51      C        0.70520    0.97170    0.54620    1.000
    H34      H        0.76450    0.01720    0.55210    1.000
    C52      C        0.67000    0.89860    0.60890    1.000
    H35      H        0.70700    0.89640    0.65530    1.000
    C53      C        0.58510    0.83210    0.60400    1.000
    H36      H        0.56270    0.78500    0.64690    1.000
    C54      C        0.53090    0.83550    0.53220    1.000
    O7       O        0.35730    0.57530    0.81730    1.000
    N13      N        0.50560    0.39640    0.91050    1.000
    N14      N        0.55800    0.33270    0.01050    1.000
    C55      C        0.45930    0.49200    0.83020    1.000
    H37      H        0.42810    0.49120    0.88430    1.000
    C56      C        0.50450    0.44660    0.82850    1.000
    C57      C        0.57630    0.38780    0.93810    1.000
    H38      H        0.63210    0.41760    0.90900    1.000
    C58      C        0.43470    0.34240    0.97110    1.000
    C59      C        0.34850    0.32460    0.97550    1.000
    H39      H        0.32650    0.35020    0.93320    1.000
    C60      C        0.29480    0.26650    0.04620    1.000
    H40      H        0.23550    0.25270    0.05210    1.000
    C61      C        0.33000    0.22860    0.10890    1.000
    H41      H        0.29300    0.18940    0.15530    1.000
    C62      C        0.41490    0.24700    0.10400    1.000
    H42      H        0.43730    0.22230    0.14690    1.000
    C63      C        0.46910    0.30460    0.03220    1.000
    O8       O        0.42470    0.78200    0.81730    1.000
    N15      N        0.60360    0.10920    0.91050    1.000
    N16      N        0.66730    0.22530    0.01050    1.000
    C64      C        0.50800    0.96730    0.83020    1.000
    H43      H        0.50880    0.93690    0.88430    1.000
    C65      C        0.55340    0.05790    0.82850    1.000
    C66      C        0.61220    0.18850    0.93810    1.000
    H44      H        0.58240    0.21450    0.90900    1.000
    C67      C        0.65760    0.09230    0.97110    1.000
    C68      C        0.67540    0.02390    0.97550    1.000
    H45      H        0.64980    0.97630    0.93320    1.000
    C69      C        0.73350    0.02830    0.04620    1.000
    H46      H        0.74730    0.98280    0.05210    1.000
    C70      C        0.77140    0.10140    0.10890    1.000
    H47      H        0.81060    0.10360    0.15530    1.000
    C71      C        0.75300    0.16790    0.10400    1.000
    H48      H        0.77770    0.21500    0.14690    1.000
    C72      C        0.69540    0.16450    0.03220    1.000
    O9       O        0.21800    0.64270    0.81730    1.000
    N17      N        0.89080    0.49440    0.91050    1.000
    N18      N        0.77470    0.44200    0.01050    1.000
    C73      C        0.03270    0.54070    0.83020    1.000
    H49      H        0.06310    0.57190    0.88430    1.000
    C74      C        0.94210    0.49550    0.82850    1.000
    C75      C        0.81150    0.42370    0.93810    1.000
    H50      H        0.78550    0.36790    0.90900    1.000
    C76      C        0.90770    0.56530    0.97110    1.000
    C77      C        0.97610    0.65150    0.97550    1.000
    H51      H        0.02370    0.67350    0.93320    1.000
    C78      C        0.97170    0.70520    0.04620    1.000
    H52      H        0.01720    0.76450    0.05210    1.000
    C79      C        0.89860    0.67000    0.10890    1.000
    H53      H        0.89640    0.70700    0.15530    1.000
    C80      C        0.83210    0.58510    0.10400    1.000
    H54      H        0.78500    0.56270    0.14690    1.000
    C81      C        0.83550    0.53090    0.03220    1.000
    O10      O        0.42470    0.64270    0.68270    1.000
    N19      N        0.60360    0.49440    0.58950    1.000
    N20      N        0.66730    0.44200    0.48950    1.000
    C82      C        0.50800    0.54070    0.66980    1.000
    H55      H        0.50880    0.57190    0.61570    1.000
    C83      C        0.55340    0.49550    0.67150    1.000
    C84      C        0.61220    0.42370    0.56190    1.000
    H56      H        0.58240    0.36790    0.59100    1.000
    C85      C        0.65760    0.56530    0.52890    1.000
    C86      C        0.67540    0.65150    0.52450    1.000
    H57      H        0.64980    0.67350    0.56680    1.000
    C87      C        0.73350    0.70520    0.45380    1.000
    H58      H        0.74730    0.76450    0.44790    1.000
    C88      C        0.77140    0.67000    0.39110    1.000
    H59      H        0.81060    0.70700    0.34470    1.000
    C89      C        0.75300    0.58510    0.39600    1.000
    H60      H        0.77770    0.56270    0.35310    1.000
    C90      C        0.69540    0.53090    0.46780    1.000
    O11      O        0.21800    0.57530    0.68270    1.000
    N21      N        0.89080    0.39640    0.58950    1.000
    N22      N        0.77470    0.33270    0.48950    1.000
    C91      C        0.03270    0.49200    0.66980    1.000
    H61      H        0.06310    0.49120    0.61570    1.000
    C92      C        0.94210    0.44660    0.67150    1.000
    C93      C        0.81150    0.38780    0.56190    1.000
    H62      H        0.78550    0.41760    0.59100    1.000
    C94      C        0.90770    0.34240    0.52890    1.000
    C95      C        0.97610    0.32460    0.52450    1.000
    H63      H        0.02370    0.35020    0.56680    1.000
    C96      C        0.97170    0.26650    0.45380    1.000
    H64      H        0.01720    0.25270    0.44790    1.000
    C97      C        0.89860    0.22860    0.39110    1.000
    H65      H        0.89640    0.18940    0.34470    1.000
    C98      C        0.83210    0.24700    0.39600    1.000
    H66      H        0.78500    0.22230    0.35310    1.000
    C99      C        0.83550    0.30460    0.46780    1.000
    O12      O        0.35730    0.78200    0.68270    1.000
    N23      N        0.50560    0.10920    0.58950    1.000
    N24      N        0.55800    0.22530    0.48950    1.000
    C100     C        0.45930    0.96730    0.66980    1.000
    H67      H        0.42810    0.93690    0.61570    1.000
    C101     C        0.50450    0.05790    0.67150    1.000
    C102     C        0.57630    0.18850    0.56190    1.000
    H68      H        0.63210    0.21450    0.59100    1.000
    C103     C        0.43470    0.09230    0.52890    1.000
    C104     C        0.34850    0.02390    0.52450    1.000
    H69      H        0.32650    0.97630    0.56680    1.000
    C105     C        0.29480    0.02830    0.45380    1.000
    H70      H        0.23550    0.98280    0.44790    1.000
    C106     C        0.33000    0.10140    0.39110    1.000
    H71      H        0.29300    0.10360    0.34470    1.000
    C107     C        0.41490    0.16790    0.39600    1.000
    H72      H        0.43730    0.21500    0.35310    1.000
    C108     C        0.46910    0.16450    0.46780    1.000
    Mn1      Mn       0.66667    0.33333    0.10400    1.000
    Mn2      Mn       0.66667    0.33333    0.39600    1.000
    Mn3      Mn       0.33333    0.66667    0.89600    1.000
    Mn4      Mn       0.33333    0.66667    0.60400    1.000
    C109     C        0.59030    0.40970    0.25000    1.000
    C110     C        0.54030    0.45970    0.25000    1.000
    C111     C        0.44640    0.55360    0.25000    1.000
    H73      H        0.41530    0.58470    0.25000    1.000
    C112     C        0.59030    0.18060    0.25000    1.000
    C113     C        0.54030    0.08060    0.25000    1.000
    C114     C        0.44640    0.89280    0.25000    1.000
    H74      H        0.41530    0.83060    0.25000    1.000
    C115     C        0.81940    0.40970    0.25000    1.000
    C116     C        0.91940    0.45970    0.25000    1.000
    C117     C        0.10720    0.55360    0.25000    1.000
    H75      H        0.16940    0.58470    0.25000    1.000
    C118     C        0.40970    0.59030    0.75000    1.000
    C119     C        0.45970    0.54030    0.75000    1.000
    C120     C        0.55360    0.44640    0.75000    1.000
    H76      H        0.58470    0.41530    0.75000    1.000
    C121     C        0.40970    0.81940    0.75000    1.000
    C122     C        0.45970    0.91940    0.75000    1.000
    C123     C        0.55360    0.10720    0.75000    1.000
    H77      H        0.58470    0.16940    0.75000    1.000
    C124     C        0.18060    0.59030    0.75000    1.000
    C125     C        0.08060    0.54030    0.75000    1.000
    C126     C        0.89280    0.44640    0.75000    1.000
    H78      H        0.83060    0.41530    0.75000    1.000
