# CIF file generated by openbabel 3.1.0, see https://openbabel.org
data_I
_chemical_name_common 'image0'
_cell_length_a 21.156
_cell_length_b 8.726
_cell_length_c 15.847
_cell_angle_alpha 90
_cell_angle_beta 90
_cell_angle_gamma 90
_space_group_name_H-M_alt 'P 1'
_space_group_name_Hall 'P 1'
loop_
    _symmetry_equiv_pos_as_xyz
    x,y,z
loop_
    _atom_site_label
    _atom_site_type_symbol
    _atom_site_fract_x
    _atom_site_fract_y
    _atom_site_fract_z
    _atom_site_occupancy
    O1       O        0.98353    0.77550    0.87587    1.000
    O2       O        0.92914    0.90370    0.78063    1.000
    C1       C        0.94139    0.87410    0.85752    1.000
    N1       N        0.57052    0.57160    0.23478    1.000
    N2       N        0.74672    0.24370    0.10909    1.000
    N3       N        0.76565    0.22900    0.24986    1.000
    C2       C        0.90602    0.95240    0.92642    1.000
    C3       C        0.92207    0.92600    0.01044    1.000
    H1       H        0.95550    0.86100    0.02340    1.000
    C4       C        0.83765    0.09140    0.05553    1.000
    C5       C        0.79899    0.16230    0.12195    1.000
    C6       C        0.72822    0.28130    0.18875    1.000
    C7       C        0.85578    0.04840    0.90744    1.000
    H2       H        0.84510    0.06700    0.85140    1.000
    C8       C        0.67293    0.37700    0.20521    1.000
    N4       N        0.81079    0.15330    0.20501    1.000
    H3       H        0.84250    0.10610    0.22690    1.000
    C9       C        0.88838    0.99610    0.07468    1.000
    H4       H        0.89970    0.97940    0.13060    1.000
    C10      C        0.82135    0.11690    0.97180    1.000
    H5       H        0.78730    0.18000    0.95880    1.000
    C11      C        0.65720    0.42200    0.28644    1.000
    H6       H        0.68070    0.38830    0.33240    1.000
    C12      C        0.60579    0.51820    0.29792    1.000
    H7       H        0.59540    0.54710    0.35270    1.000
    C13      C        0.63562    0.43000    0.13947    1.000
    H8       H        0.64430    0.40080    0.08420    1.000
    C14      C        0.58556    0.52630    0.15647    1.000
    H9       H        0.56110    0.56130    0.11160    1.000
    O3       O        0.01647    0.77550    0.62413    1.000
    O4       O        0.07086    0.90370    0.71937    1.000
    C15      C        0.05861    0.87410    0.64248    1.000
    N5       N        0.42948    0.57160    0.26522    1.000
    N6       N        0.25328    0.24370    0.39091    1.000
    N7       N        0.23435    0.22900    0.25014    1.000
    C16      C        0.09398    0.95240    0.57358    1.000
    C17      C        0.07793    0.92600    0.48956    1.000
    H10      H        0.04450    0.86100    0.47660    1.000
    C18      C        0.16235    0.09140    0.44447    1.000
    C19      C        0.20101    0.16230    0.37805    1.000
    C20      C        0.27178    0.28130    0.31125    1.000
    C21      C        0.14422    0.04840    0.59256    1.000
    H11      H        0.15490    0.06700    0.64860    1.000
    C22      C        0.32707    0.37700    0.29479    1.000
    N8       N        0.18921    0.15330    0.29499    1.000
    H12      H        0.15750    0.10610    0.27310    1.000
    C23      C        0.11162    0.99610    0.42532    1.000
    H13      H        0.10030    0.97940    0.36940    1.000
    C24      C        0.17865    0.11690    0.52820    1.000
    H14      H        0.21270    0.18000    0.54120    1.000
    C25      C        0.34280    0.42200    0.21356    1.000
    H15      H        0.31930    0.38830    0.16760    1.000
    C26      C        0.39421    0.51820    0.20208    1.000
    H16      H        0.40460    0.54710    0.14730    1.000
    C27      C        0.36438    0.43000    0.36053    1.000
    H17      H        0.35570    0.40080    0.41580    1.000
    C28      C        0.41444    0.52630    0.34353    1.000
    H18      H        0.43890    0.56130    0.38840    1.000
    O5       O        0.48353    0.77550    0.12413    1.000
    O6       O        0.42914    0.90370    0.21937    1.000
    C29      C        0.44139    0.87410    0.14248    1.000
    N9       N        0.07052    0.57160    0.76522    1.000
    N10      N        0.24672    0.24370    0.89091    1.000
    N11      N        0.26565    0.22900    0.75014    1.000
    C30      C        0.40602    0.95240    0.07358    1.000
    C31      C        0.42207    0.92600    0.98956    1.000
    H19      H        0.45550    0.86100    0.97660    1.000
    C32      C        0.33765    0.09140    0.94447    1.000
    C33      C        0.29899    0.16230    0.87805    1.000
    C34      C        0.22822    0.28130    0.81125    1.000
    C35      C        0.35578    0.04840    0.09256    1.000
    H20      H        0.34510    0.06700    0.14860    1.000
    C36      C        0.17293    0.37700    0.79479    1.000
    N12      N        0.31079    0.15330    0.79499    1.000
    H21      H        0.34250    0.10610    0.77310    1.000
    C37      C        0.38838    0.99610    0.92532    1.000
    H22      H        0.39970    0.97940    0.86940    1.000
    C38      C        0.32135    0.11690    0.02820    1.000
    H23      H        0.28730    0.18000    0.04120    1.000
    C39      C        0.15720    0.42200    0.71356    1.000
    H24      H        0.18070    0.38830    0.66760    1.000
    C40      C        0.10579    0.51820    0.70208    1.000
    H25      H        0.09540    0.54710    0.64730    1.000
    C41      C        0.13562    0.43000    0.86053    1.000
    H26      H        0.14430    0.40080    0.91580    1.000
    C42      C        0.08556    0.52630    0.84353    1.000
    H27      H        0.06110    0.56130    0.88840    1.000
    O7       O        0.51647    0.77550    0.37587    1.000
    O8       O        0.57086    0.90370    0.28063    1.000
    C43      C        0.55861    0.87410    0.35752    1.000
    N13      N        0.92948    0.57160    0.73478    1.000
    N14      N        0.75328    0.24370    0.60909    1.000
    N15      N        0.73435    0.22900    0.74986    1.000
    C44      C        0.59398    0.95240    0.42642    1.000
    C45      C        0.57793    0.92600    0.51044    1.000
    H28      H        0.54450    0.86100    0.52340    1.000
    C46      C        0.66235    0.09140    0.55553    1.000
    C47      C        0.70101    0.16230    0.62195    1.000
    C48      C        0.77178    0.28130    0.68875    1.000
    C49      C        0.64422    0.04840    0.40744    1.000
    H29      H        0.65490    0.06700    0.35140    1.000
    C50      C        0.82707    0.37700    0.70521    1.000
    N16      N        0.68921    0.15330    0.70501    1.000
    H30      H        0.65750    0.10610    0.72690    1.000
    C51      C        0.61162    0.99610    0.57468    1.000
    H31      H        0.60030    0.97940    0.63060    1.000
    C52      C        0.67865    0.11690    0.47180    1.000
    H32      H        0.71270    0.18000    0.45880    1.000
    C53      C        0.84280    0.42200    0.78644    1.000
    H33      H        0.81930    0.38830    0.83240    1.000
    C54      C        0.89421    0.51820    0.79792    1.000
    H34      H        0.90460    0.54710    0.85270    1.000
    C55      C        0.86438    0.43000    0.63947    1.000
    H35      H        0.85570    0.40080    0.58420    1.000
    C56      C        0.91444    0.52630    0.65647    1.000
    H36      H        0.93890    0.56130    0.61160    1.000
    Ni1      Ni       0.50000    0.73025    0.25000    1.000
    Ni2      Ni       0.00000    0.73025    0.75000    1.000
    O9       O        0.51647    0.22450    0.87587    1.000
    O10      O        0.57086    0.09630    0.78063    1.000
    C57      C        0.55861    0.12590    0.85752    1.000
    N17      N        0.92948    0.42840    0.23478    1.000
    N18      N        0.75328    0.75630    0.10909    1.000
    N19      N        0.73435    0.77100    0.24986    1.000
    C58      C        0.59398    0.04760    0.92642    1.000
    C59      C        0.57793    0.07400    0.01044    1.000
    H37      H        0.54450    0.13900    0.02340    1.000
    C60      C        0.66235    0.90860    0.05553    1.000
    C61      C        0.70101    0.83770    0.12195    1.000
    C62      C        0.77178    0.71870    0.18875    1.000
    C63      C        0.64422    0.95160    0.90744    1.000
    H38      H        0.65490    0.93300    0.85140    1.000
    C64      C        0.82707    0.62300    0.20521    1.000
    N20      N        0.68921    0.84670    0.20501    1.000
    H39      H        0.65750    0.89390    0.22690    1.000
    C65      C        0.61162    0.00390    0.07468    1.000
    H40      H        0.60030    0.02060    0.13060    1.000
    C66      C        0.67865    0.88310    0.97180    1.000
    H41      H        0.71270    0.82000    0.95880    1.000
    C67      C        0.84280    0.57800    0.28644    1.000
    H42      H        0.81930    0.61170    0.33240    1.000
    C68      C        0.89421    0.48180    0.29792    1.000
    H43      H        0.90460    0.45290    0.35270    1.000
    C69      C        0.86438    0.57000    0.13947    1.000
    H44      H        0.85570    0.59920    0.08420    1.000
    C70      C        0.91444    0.47370    0.15647    1.000
    H45      H        0.93890    0.43870    0.11160    1.000
    O11      O        0.48353    0.22450    0.62413    1.000
    O12      O        0.42914    0.09630    0.71937    1.000
    C71      C        0.44139    0.12590    0.64248    1.000
    N21      N        0.07052    0.42840    0.26522    1.000
    N22      N        0.24672    0.75630    0.39091    1.000
    N23      N        0.26565    0.77100    0.25014    1.000
    C72      C        0.40602    0.04760    0.57358    1.000
    C73      C        0.42207    0.07400    0.48956    1.000
    H46      H        0.45550    0.13900    0.47660    1.000
    C74      C        0.33765    0.90860    0.44447    1.000
    C75      C        0.29899    0.83770    0.37805    1.000
    C76      C        0.22822    0.71870    0.31125    1.000
    C77      C        0.35578    0.95160    0.59256    1.000
    H47      H        0.34510    0.93300    0.64860    1.000
    C78      C        0.17293    0.62300    0.29479    1.000
    N24      N        0.31079    0.84670    0.29499    1.000
    H48      H        0.34250    0.89390    0.27310    1.000
    C79      C        0.38838    0.00390    0.42532    1.000
    H49      H        0.39970    0.02060    0.36940    1.000
    C80      C        0.32135    0.88310    0.52820    1.000
    H50      H        0.28730    0.82000    0.54120    1.000
    C81      C        0.15720    0.57800    0.21356    1.000
    H51      H        0.18070    0.61170    0.16760    1.000
    C82      C        0.10579    0.48180    0.20208    1.000
    H52      H        0.09540    0.45290    0.14730    1.000
    C83      C        0.13562    0.57000    0.36053    1.000
    H53      H        0.14430    0.59920    0.41580    1.000
    C84      C        0.08556    0.47370    0.34353    1.000
    H54      H        0.06110    0.43870    0.38840    1.000
    O13      O        0.01647    0.22450    0.12413    1.000
    O14      O        0.07086    0.09630    0.21937    1.000
    C85      C        0.05861    0.12590    0.14248    1.000
    N25      N        0.42948    0.42840    0.76522    1.000
    N26      N        0.25328    0.75630    0.89091    1.000
    N27      N        0.23435    0.77100    0.75014    1.000
    C86      C        0.09398    0.04760    0.07358    1.000
    C87      C        0.07793    0.07400    0.98956    1.000
    H55      H        0.04450    0.13900    0.97660    1.000
    C88      C        0.16235    0.90860    0.94447    1.000
    C89      C        0.20101    0.83770    0.87805    1.000
    C90      C        0.27178    0.71870    0.81125    1.000
    C91      C        0.14422    0.95160    0.09256    1.000
    H56      H        0.15490    0.93300    0.14860    1.000
    C92      C        0.32707    0.62300    0.79479    1.000
    N28      N        0.18921    0.84670    0.79499    1.000
    H57      H        0.15750    0.89390    0.77310    1.000
    C93      C        0.11162    0.00390    0.92532    1.000
    H58      H        0.10030    0.02060    0.86940    1.000
    C94      C        0.17865    0.88310    0.02820    1.000
    H59      H        0.21270    0.82000    0.04120    1.000
    C95      C        0.34280    0.57800    0.71356    1.000
    H60      H        0.31930    0.61170    0.66760    1.000
    C96      C        0.39421    0.48180    0.70208    1.000
    H61      H        0.40460    0.45290    0.64730    1.000
    C97      C        0.36438    0.57000    0.86053    1.000
    H62      H        0.35570    0.59920    0.91580    1.000
    C98      C        0.41444    0.47370    0.84353    1.000
    H63      H        0.43890    0.43870    0.88840    1.000
    O15      O        0.98353    0.22450    0.37587    1.000
    O16      O        0.92914    0.09630    0.28063    1.000
    C99      C        0.94139    0.12590    0.35752    1.000
    N29      N        0.57052    0.42840    0.73478    1.000
    N30      N        0.74672    0.75630    0.60909    1.000
    N31      N        0.76565    0.77100    0.74986    1.000
    C100     C        0.90602    0.04760    0.42642    1.000
    C101     C        0.92207    0.07400    0.51044    1.000
    H64      H        0.95550    0.13900    0.52340    1.000
    C102     C        0.83765    0.90860    0.55553    1.000
    C103     C        0.79899    0.83770    0.62195    1.000
    C104     C        0.72822    0.71870    0.68875    1.000
    C105     C        0.85578    0.95160    0.40744    1.000
    H65      H        0.84510    0.93300    0.35140    1.000
    C106     C        0.67293    0.62300    0.70521    1.000
    N32      N        0.81079    0.84670    0.70501    1.000
    H66      H        0.84250    0.89390    0.72690    1.000
    C107     C        0.88838    0.00390    0.57468    1.000
    H67      H        0.89970    0.02060    0.63060    1.000
    C108     C        0.82135    0.88310    0.47180    1.000
    H68      H        0.78730    0.82000    0.45880    1.000
    C109     C        0.65720    0.57800    0.78644    1.000
    H69      H        0.68070    0.61170    0.83240    1.000
    C110     C        0.60579    0.48180    0.79792    1.000
    H70      H        0.59540    0.45290    0.85270    1.000
    C111     C        0.63562    0.57000    0.63947    1.000
    H71      H        0.64430    0.59920    0.58420    1.000
    C112     C        0.58556    0.47370    0.65647    1.000
    H72      H        0.56110    0.43870    0.61160    1.000
    Ni3      Ni       0.00000    0.26975    0.25000    1.000
    Ni4      Ni       0.50000    0.26975    0.75000    1.000
