# CIF file generated by openbabel 3.1.0, see https://openbabel.org
data_I
_chemical_name_common 'image0'
_cell_length_a 9.6711
_cell_length_b 11.7849
_cell_length_c 14.3863
_cell_angle_alpha 90
_cell_angle_beta 122.276
_cell_angle_gamma 90
_space_group_name_H-M_alt 'P 1'
_space_group_name_Hall 'P 1'
loop_
    _symmetry_equiv_pos_as_xyz
    x,y,z
loop_
    _atom_site_label
    _atom_site_type_symbol
    _atom_site_fract_x
    _atom_site_fract_y
    _atom_site_fract_z
    _atom_site_occupancy
    Sm1      Sm       0.61680    0.98358    0.33036    1.000
    O1       O        0.70360    0.78320    0.34350    1.000
    O2       O        0.61560    0.60450    0.30140    1.000
    O3       O        0.30630    0.67990    0.17320    1.000
    O4       O        0.39780    0.85760    0.20470    1.000
    O5       O        0.51720    0.88170    0.43430    1.000
    O6       O        0.46700    0.89190    0.56760    1.000
    O7       O        0.89120    0.98470    0.35720    1.000
    O8       O        0.15850    0.01240    0.47720    1.000
    C1       C        0.59580    0.70950    0.29490    1.000
    C2       C        0.41720    0.75360    0.21730    1.000
    C3       C        0.49500    0.93480    0.50040    1.000
    C4       C        0.01680    0.99990    0.45410    1.000
    Sm2      Sm       0.38320    0.48358    0.16964    1.000
    O9       O        0.29640    0.28320    0.15650    1.000
    O10      O        0.38440    0.10450    0.19860    1.000
    O11      O        0.69370    0.17990    0.32680    1.000
    O12      O        0.60220    0.35760    0.29530    1.000
    O13      O        0.48280    0.38170    0.06570    1.000
    O14      O        0.53300    0.39190    0.93240    1.000
    O15      O        0.10880    0.48470    0.14280    1.000
    O16      O        0.84150    0.51240    0.02280    1.000
    C5       C        0.40420    0.20950    0.20510    1.000
    C6       C        0.58280    0.25360    0.28270    1.000
    C7       C        0.50500    0.43480    0.99960    1.000
    C8       C        0.98320    0.49990    0.04590    1.000
    Sm3      Sm       0.38320    0.01642    0.66964    1.000
    O17      O        0.29640    0.21680    0.65650    1.000
    O18      O        0.38440    0.39550    0.69860    1.000
    O19      O        0.69370    0.32010    0.82680    1.000
    O20      O        0.60220    0.14240    0.79530    1.000
    O21      O        0.48280    0.11830    0.56570    1.000
    O22      O        0.53300    0.10810    0.43240    1.000
    O23      O        0.10880    0.01530    0.64280    1.000
    O24      O        0.84150    0.98760    0.52280    1.000
    C9       C        0.40420    0.29050    0.70510    1.000
    C10      C        0.58280    0.24640    0.78270    1.000
    C11      C        0.50500    0.06520    0.49960    1.000
    C12      C        0.98320    0.00010    0.54590    1.000
    Sm4      Sm       0.61680    0.51642    0.83036    1.000
    O25      O        0.70360    0.71680    0.84350    1.000
    O26      O        0.61560    0.89550    0.80140    1.000
    O27      O        0.30630    0.82010    0.67320    1.000
    O28      O        0.39780    0.64240    0.70470    1.000
    O29      O        0.51720    0.61830    0.93430    1.000
    O30      O        0.46700    0.60810    0.06760    1.000
    O31      O        0.89120    0.51530    0.85720    1.000
    O32      O        0.15850    0.48760    0.97720    1.000
    C13      C        0.59580    0.79050    0.79490    1.000
    C14      C        0.41720    0.74640    0.71730    1.000
    C15      C        0.49500    0.56520    0.00040    1.000
    C16      C        0.01680    0.50010    0.95410    1.000
