# CIF file generated by openbabel 3.1.0, see https://openbabel.org
data_I
_chemical_name_common 'image0'
_cell_length_a 28.0682
_cell_length_b 27.1147
_cell_length_c 28.0603
_cell_angle_alpha 90
_cell_angle_beta 98.558
_cell_angle_gamma 90
_space_group_name_H-M_alt 'P 1'
_space_group_name_Hall 'P 1'
loop_
    _symmetry_equiv_pos_as_xyz
    x,y,z
loop_
    _atom_site_label
    _atom_site_type_symbol
    _atom_site_fract_x
    _atom_site_fract_y
    _atom_site_fract_z
    _atom_site_occupancy
    C1       C        0.04650    0.42039    0.13640    1.000
    C2       C        0.00790    0.38063    0.13873    1.000
    C3       C        0.98330    0.36180    0.09686    1.000
    H1       H        0.99120    0.37180    0.06730    1.000
    C4       C        0.94720    0.32830    0.09890    1.000
    H2       H        0.92920    0.31720    0.07040    1.000
    C5       C        0.93690    0.31050    0.14310    1.000
    C6       C        0.96210    0.32890    0.18500    1.000
    H3       H        0.95460    0.31820    0.21450    1.000
    C7       C        0.99830    0.36280    0.18385    1.000
    H4       H        0.01620    0.37390    0.21230    1.000
    C8       C        0.89850    0.27440    0.14410    1.000
    C9       C        0.89340    0.23520    0.11350    1.000
    H5       H        0.91460    0.23220    0.09120    1.000
    C10      C        0.85880    0.20050    0.11380    1.000
    C11      C        0.82420    0.20240    0.14290    1.000
    C12      C        0.82750    0.24320    0.17350    1.000
    H6       H        0.80420    0.24730    0.19360    1.000
    C13      C        0.86360    0.27760    0.17540    1.000
    C14      C        0.72110    0.11440    0.10240    1.000
    H7       H        0.70230    0.10470    0.07380    1.000
    C15      C        0.75750    0.14790    0.10170    1.000
    H8       H        0.76390    0.15980    0.07230    1.000
    C16      C        0.78490    0.16430    0.14330    1.000
    C17      C        0.77560    0.14380    0.18610    1.000
    H9       H        0.79390    0.15380    0.21480    1.000
    C18      C        0.74150    0.11070    0.18740    1.000
    H10      H        0.73660    0.09730    0.21690    1.000
    C19      C        0.71270    0.09540    0.14530    1.000
    C20      C        0.67380    0.05794    0.14775    1.000
    C21      C        0.88980    0.15790    0.04220    1.000
    H11      H        0.88430    0.12770    0.02420    1.000
    H12      H        0.92290    0.15950    0.05670    1.000
    H13      H        0.88240    0.18540    0.02090    1.000
    C22      C        0.83170    0.32090    0.23680    1.000
    H14      H        0.83620    0.34980    0.25660    1.000
    H15      H        0.83500    0.29200    0.25690    1.000
    H16      H        0.80010    0.32140    0.21820    1.000
    C23      C        0.04250    0.55533    0.13480    1.000
    C24      C        0.00470    0.59210    0.13570    1.000
    C25      C        0.99630    0.61230    0.17899    1.000
    H17      H        0.01540    0.60230    0.20730    1.000
    C26      C        0.96000    0.64730    0.18200    1.000
    H18      H        0.95370    0.65810    0.21180    1.000
    C27      C        0.93330    0.66610    0.13930    1.000
    C28      C        0.94310    0.64580    0.09540    1.000
    H19      H        0.92510    0.65620    0.06660    1.000
    C29      C        0.97860    0.61130    0.09420    1.000
    H20      H        0.98540    0.60040    0.06450    1.000
    C30      C        0.89790    0.70620    0.14070    1.000
    C31      C        0.89210    0.74100    0.11240    1.000
    H21      H        0.91330    0.74370    0.09000    1.000
    C32      C        0.85630    0.77670    0.11140    1.000
    C33      C        0.82780    0.78220    0.14190    1.000
    C34      C        0.83140    0.74600    0.17220    1.000
    H22      H        0.81070    0.74650    0.19520    1.000
    C35      C        0.86420    0.70490    0.17410    1.000
    C36      C        0.74440    0.87250    0.18570    1.000
    H23      H        0.73800    0.88480    0.21500    1.000
    C37      C        0.78020    0.83880    0.18470    1.000
    H24      H        0.79840    0.82930    0.21370    1.000
    C38      C        0.79050    0.81790    0.14240    1.000
    C39      C        0.76590    0.83570    0.10120    1.000
    H25      H        0.77400    0.82520    0.07180    1.000
    C40      C        0.72910    0.86910    0.10140    1.000
    H26      H        0.71130    0.87890    0.07230    1.000
    C41      C        0.71800    0.88820    0.14360    1.000
    C42      C        0.67740    0.92470    0.14370    1.000
    C43      C        0.83060    0.66790    0.24240    1.000
    H27      H        0.83300    0.63950    0.26300    1.000
    H28      H        0.79840    0.67050    0.22540    1.000
    H29      H        0.83820    0.69700    0.26150    1.000
    C44      C        0.13340    0.53090    0.49532    1.000
    H30      H        0.15580    0.55000    0.51490    1.000
    C45      C        0.13640    0.52860    0.44780    1.000
    H31      H        0.16090    0.54600    0.43630    1.000
    C46      C        0.10570    0.50229    0.41630    1.000
    C47      C        0.07120    0.48190    0.43720    1.000
    H32      H        0.04720    0.46420    0.41800    1.000
    C48      C        0.06880    0.48570    0.48681    1.000
    H33      H        0.04300    0.47160    0.49910    1.000
    C49      C        0.10070    0.45580    0.29100    1.000
    H34      H        0.09270    0.42610    0.27520    1.000
    C50      C        0.09800    0.45930    0.34012    1.000
    H35      H        0.08920    0.43150    0.35620    1.000
    C51      C        0.10715    0.49853    0.36341    1.000
    C52      C        0.12220    0.53640    0.33905    1.000
    H36      H        0.13300    0.56590    0.35390    1.000
    C53      C        0.12050    0.52880    0.29150    1.000
    H37      H        0.12550    0.55730    0.27460    1.000
    N1       N        0.10110    0.50798    0.51491    1.000
    N2       N        0.11400    0.49306    0.26639    1.000
    O1       O        0.05305    0.43641    0.09746    1.000
    O2       O        0.06792    0.43481    0.17780    1.000
    O3       O        0.65308    0.04315    0.10785    1.000
    O4       O        0.66634    0.04469    0.18807    1.000
    O5       O        0.85670    0.15930    0.08250    1.000
    O6       O        0.86700    0.31980    0.20530    1.000
    O7       O        0.06386    0.53973    0.17411    1.000
    O8       O        0.05055    0.54085    0.09394    1.000
    O9       O        0.66995    0.94010    0.18502    1.000
    O10      O        0.65593    0.93912    0.10451    1.000
    O11      O        0.86840    0.82490    0.07990    1.000
    O12      O        0.86320    0.66320    0.20910    1.000
    Zn1      Zn       0.10206    0.48991    0.08817    1.000
    Zn2      Zn       0.11733    0.48979    0.19445    1.000
    C54      C        0.54650    0.92039    0.13640    1.000
    C55      C        0.50790    0.88063    0.13873    1.000
    C56      C        0.48330    0.86180    0.09686    1.000
    H38      H        0.49120    0.87180    0.06730    1.000
    C57      C        0.44720    0.82830    0.09890    1.000
    H39      H        0.42920    0.81720    0.07040    1.000
    C58      C        0.43690    0.81050    0.14310    1.000
    C59      C        0.46210    0.82890    0.18500    1.000
    H40      H        0.45460    0.81820    0.21450    1.000
    C60      C        0.49830    0.86280    0.18385    1.000
    H41      H        0.51620    0.87390    0.21230    1.000
    C61      C        0.39850    0.77440    0.14410    1.000
    C62      C        0.39340    0.73520    0.11350    1.000
    H42      H        0.41460    0.73220    0.09120    1.000
    C63      C        0.35880    0.70050    0.11380    1.000
    C64      C        0.32420    0.70240    0.14290    1.000
    C65      C        0.32750    0.74320    0.17350    1.000
    H43      H        0.30420    0.74730    0.19360    1.000
    C66      C        0.36360    0.77760    0.17540    1.000
    C67      C        0.22110    0.61440    0.10240    1.000
    H44      H        0.20230    0.60470    0.07380    1.000
    C68      C        0.25750    0.64790    0.10170    1.000
    H45      H        0.26390    0.65980    0.07230    1.000
    C69      C        0.28490    0.66430    0.14330    1.000
    C70      C        0.27560    0.64380    0.18610    1.000
    H46      H        0.29390    0.65380    0.21480    1.000
    C71      C        0.24150    0.61070    0.18740    1.000
    H47      H        0.23660    0.59730    0.21690    1.000
    C72      C        0.21270    0.59540    0.14530    1.000
    C73      C        0.17380    0.55794    0.14775    1.000
    C74      C        0.38980    0.65790    0.04220    1.000
    H48      H        0.38430    0.62770    0.02420    1.000
    H49      H        0.42290    0.65950    0.05670    1.000
    H50      H        0.38240    0.68540    0.02090    1.000
    C75      C        0.33170    0.82090    0.23680    1.000
    H51      H        0.33620    0.84980    0.25660    1.000
    H52      H        0.33500    0.79200    0.25690    1.000
    H53      H        0.30010    0.82140    0.21820    1.000
    C76      C        0.54250    0.05533    0.13480    1.000
    C77      C        0.50470    0.09210    0.13570    1.000
    C78      C        0.49630    0.11230    0.17899    1.000
    H54      H        0.51540    0.10230    0.20730    1.000
    C79      C        0.46000    0.14730    0.18200    1.000
    H55      H        0.45370    0.15810    0.21180    1.000
    C80      C        0.43330    0.16610    0.13930    1.000
    C81      C        0.44310    0.14580    0.09540    1.000
    H56      H        0.42510    0.15620    0.06660    1.000
    C82      C        0.47860    0.11130    0.09420    1.000
    H57      H        0.48540    0.10040    0.06450    1.000
    C83      C        0.39790    0.20620    0.14070    1.000
    C84      C        0.39210    0.24100    0.11240    1.000
    H58      H        0.41330    0.24370    0.09000    1.000
    C85      C        0.35630    0.27670    0.11140    1.000
    C86      C        0.32780    0.28220    0.14190    1.000
    C87      C        0.33140    0.24600    0.17220    1.000
    H59      H        0.31070    0.24650    0.19520    1.000
    C88      C        0.36420    0.20490    0.17410    1.000
    C89      C        0.24440    0.37250    0.18570    1.000
    H60      H        0.23800    0.38480    0.21500    1.000
    C90      C        0.28020    0.33880    0.18470    1.000
    H61      H        0.29840    0.32930    0.21370    1.000
    C91      C        0.29050    0.31790    0.14240    1.000
    C92      C        0.26590    0.33570    0.10120    1.000
    H62      H        0.27400    0.32520    0.07180    1.000
    C93      C        0.22910    0.36910    0.10140    1.000
    H63      H        0.21130    0.37890    0.07230    1.000
    C94      C        0.21800    0.38820    0.14360    1.000
    C95      C        0.17740    0.42470    0.14370    1.000
    C96      C        0.33060    0.16790    0.24240    1.000
    H64      H        0.33300    0.13950    0.26300    1.000
    H65      H        0.29840    0.17050    0.22540    1.000
    H66      H        0.33820    0.19700    0.26150    1.000
    C97      C        0.63340    0.03090    0.49532    1.000
    H67      H        0.65580    0.05000    0.51490    1.000
    C98      C        0.63640    0.02860    0.44780    1.000
    H68      H        0.66090    0.04600    0.43630    1.000
    C99      C        0.60570    0.00229    0.41630    1.000
    C100     C        0.57120    0.98190    0.43720    1.000
    H69      H        0.54720    0.96420    0.41800    1.000
    C101     C        0.56880    0.98570    0.48681    1.000
    H70      H        0.54300    0.97160    0.49910    1.000
    C102     C        0.60070    0.95580    0.29100    1.000
    H71      H        0.59270    0.92610    0.27520    1.000
    C103     C        0.59800    0.95930    0.34012    1.000
    H72      H        0.58920    0.93150    0.35620    1.000
    C104     C        0.60715    0.99853    0.36341    1.000
    C105     C        0.62220    0.03640    0.33905    1.000
    H73      H        0.63300    0.06590    0.35390    1.000
    C106     C        0.62050    0.02880    0.29150    1.000
    H74      H        0.62550    0.05730    0.27460    1.000
    N3       N        0.60110    0.00798    0.51491    1.000
    N4       N        0.61400    0.99306    0.26639    1.000
    O13      O        0.55305    0.93641    0.09746    1.000
    O14      O        0.56792    0.93481    0.17780    1.000
    O15      O        0.15308    0.54315    0.10785    1.000
    O16      O        0.16634    0.54469    0.18807    1.000
    O17      O        0.35670    0.65930    0.08250    1.000
    O18      O        0.36700    0.81980    0.20530    1.000
    O19      O        0.56386    0.03973    0.17411    1.000
    O20      O        0.55055    0.04085    0.09394    1.000
    O21      O        0.16995    0.44010    0.18502    1.000
    O22      O        0.15593    0.43912    0.10451    1.000
    O23      O        0.36840    0.32490    0.07990    1.000
    O24      O        0.36320    0.16320    0.20910    1.000
    Zn3      Zn       0.60206    0.98991    0.08817    1.000
    Zn4      Zn       0.61733    0.98979    0.19445    1.000
    C107     C        0.04650    0.57961    0.63640    1.000
    C108     C        0.00790    0.61937    0.63873    1.000
    C109     C        0.98330    0.63820    0.59686    1.000
    H75      H        0.99120    0.62820    0.56730    1.000
    C110     C        0.94720    0.67170    0.59890    1.000
    H76      H        0.92920    0.68280    0.57040    1.000
    C111     C        0.93690    0.68950    0.64310    1.000
    C112     C        0.96210    0.67110    0.68500    1.000
    H77      H        0.95460    0.68180    0.71450    1.000
    C113     C        0.99830    0.63720    0.68385    1.000
    H78      H        0.01620    0.62610    0.71230    1.000
    C114     C        0.89850    0.72560    0.64410    1.000
    C115     C        0.89340    0.76480    0.61350    1.000
    H79      H        0.91460    0.76780    0.59120    1.000
    C116     C        0.85880    0.79950    0.61380    1.000
    C117     C        0.82420    0.79760    0.64290    1.000
    C118     C        0.82750    0.75680    0.67350    1.000
    H80      H        0.80420    0.75270    0.69360    1.000
    C119     C        0.86360    0.72240    0.67540    1.000
    C120     C        0.72110    0.88560    0.60240    1.000
    H81      H        0.70230    0.89530    0.57380    1.000
    C121     C        0.75750    0.85210    0.60170    1.000
    H82      H        0.76390    0.84020    0.57230    1.000
    C122     C        0.78490    0.83570    0.64330    1.000
    C123     C        0.77560    0.85620    0.68610    1.000
    H83      H        0.79390    0.84620    0.71480    1.000
    C124     C        0.74150    0.88930    0.68740    1.000
    H84      H        0.73660    0.90270    0.71690    1.000
    C125     C        0.71270    0.90460    0.64530    1.000
    C126     C        0.67380    0.94206    0.64775    1.000
    C127     C        0.88980    0.84210    0.54220    1.000
    H85      H        0.88430    0.87230    0.52420    1.000
    H86      H        0.92290    0.84050    0.55670    1.000
    H87      H        0.88240    0.81460    0.52090    1.000
    C128     C        0.83170    0.67910    0.73680    1.000
    H88      H        0.83620    0.65020    0.75660    1.000
    H89      H        0.83500    0.70800    0.75690    1.000
    H90      H        0.80010    0.67860    0.71820    1.000
    C129     C        0.04250    0.44467    0.63480    1.000
    C130     C        0.00470    0.40790    0.63570    1.000
    C131     C        0.99630    0.38770    0.67899    1.000
    H91      H        0.01540    0.39770    0.70730    1.000
    C132     C        0.96000    0.35270    0.68200    1.000
    H92      H        0.95370    0.34190    0.71180    1.000
    C133     C        0.93330    0.33390    0.63930    1.000
    C134     C        0.94310    0.35420    0.59540    1.000
    H93      H        0.92510    0.34380    0.56660    1.000
    C135     C        0.97860    0.38870    0.59420    1.000
    H94      H        0.98540    0.39960    0.56450    1.000
    C136     C        0.89790    0.29380    0.64070    1.000
    C137     C        0.89210    0.25900    0.61240    1.000
    H95      H        0.91330    0.25630    0.59000    1.000
    C138     C        0.85630    0.22330    0.61140    1.000
    C139     C        0.82780    0.21780    0.64190    1.000
    C140     C        0.83140    0.25400    0.67220    1.000
    H96      H        0.81070    0.25350    0.69520    1.000
    C141     C        0.86420    0.29510    0.67410    1.000
    C142     C        0.74440    0.12750    0.68570    1.000
    H97      H        0.73800    0.11520    0.71500    1.000
    C143     C        0.78020    0.16120    0.68470    1.000
    H98      H        0.79840    0.17070    0.71370    1.000
    C144     C        0.79050    0.18210    0.64240    1.000
    C145     C        0.76590    0.16430    0.60120    1.000
    H99      H        0.77400    0.17480    0.57180    1.000
    C146     C        0.72910    0.13090    0.60140    1.000
    H100     H        0.71130    0.12110    0.57230    1.000
    C147     C        0.71800    0.11180    0.64360    1.000
    C148     C        0.67740    0.07530    0.64370    1.000
    C149     C        0.83060    0.33210    0.74240    1.000
    H101     H        0.83300    0.36050    0.76300    1.000
    H102     H        0.79840    0.32950    0.72540    1.000
    H103     H        0.83820    0.30300    0.76150    1.000
    C150     C        0.13340    0.46910    0.99532    1.000
    H104     H        0.15580    0.45000    0.01490    1.000
    C151     C        0.13640    0.47140    0.94780    1.000
    H105     H        0.16090    0.45400    0.93630    1.000
    C152     C        0.10570    0.49771    0.91630    1.000
    C153     C        0.07120    0.51810    0.93720    1.000
    H106     H        0.04720    0.53580    0.91800    1.000
    C154     C        0.06880    0.51430    0.98681    1.000
    H107     H        0.04300    0.52840    0.99910    1.000
    C155     C        0.10070    0.54420    0.79100    1.000
    H108     H        0.09270    0.57390    0.77520    1.000
    C156     C        0.09800    0.54070    0.84012    1.000
    H109     H        0.08920    0.56850    0.85620    1.000
    C157     C        0.10715    0.50147    0.86341    1.000
    C158     C        0.12220    0.46360    0.83905    1.000
    H110     H        0.13300    0.43410    0.85390    1.000
    C159     C        0.12050    0.47120    0.79150    1.000
    H111     H        0.12550    0.44270    0.77460    1.000
    N5       N        0.10110    0.49202    0.01491    1.000
    N6       N        0.11400    0.50694    0.76639    1.000
    O25      O        0.05305    0.56359    0.59746    1.000
    O26      O        0.06792    0.56519    0.67780    1.000
    O27      O        0.65308    0.95685    0.60785    1.000
    O28      O        0.66634    0.95531    0.68807    1.000
    O29      O        0.85670    0.84070    0.58250    1.000
    O30      O        0.86700    0.68020    0.70530    1.000
    O31      O        0.06386    0.46027    0.67411    1.000
    O32      O        0.05055    0.45915    0.59394    1.000
    O33      O        0.66995    0.05990    0.68502    1.000
    O34      O        0.65593    0.06088    0.60451    1.000
    O35      O        0.86840    0.17510    0.57990    1.000
    O36      O        0.86320    0.33680    0.70910    1.000
    Zn5      Zn       0.10206    0.51009    0.58817    1.000
    Zn6      Zn       0.11733    0.51021    0.69445    1.000
    C160     C        0.54650    0.07961    0.63640    1.000
    C161     C        0.50790    0.11937    0.63873    1.000
    C162     C        0.48330    0.13820    0.59686    1.000
    H112     H        0.49120    0.12820    0.56730    1.000
    C163     C        0.44720    0.17170    0.59890    1.000
    H113     H        0.42920    0.18280    0.57040    1.000
    C164     C        0.43690    0.18950    0.64310    1.000
    C165     C        0.46210    0.17110    0.68500    1.000
    H114     H        0.45460    0.18180    0.71450    1.000
    C166     C        0.49830    0.13720    0.68385    1.000
    H115     H        0.51620    0.12610    0.71230    1.000
    C167     C        0.39850    0.22560    0.64410    1.000
    C168     C        0.39340    0.26480    0.61350    1.000
    H116     H        0.41460    0.26780    0.59120    1.000
    C169     C        0.35880    0.29950    0.61380    1.000
    C170     C        0.32420    0.29760    0.64290    1.000
    C171     C        0.32750    0.25680    0.67350    1.000
    H117     H        0.30420    0.25270    0.69360    1.000
    C172     C        0.36360    0.22240    0.67540    1.000
    C173     C        0.22110    0.38560    0.60240    1.000
    H118     H        0.20230    0.39530    0.57380    1.000
    C174     C        0.25750    0.35210    0.60170    1.000
    H119     H        0.26390    0.34020    0.57230    1.000
    C175     C        0.28490    0.33570    0.64330    1.000
    C176     C        0.27560    0.35620    0.68610    1.000
    H120     H        0.29390    0.34620    0.71480    1.000
    C177     C        0.24150    0.38930    0.68740    1.000
    H121     H        0.23660    0.40270    0.71690    1.000
    C178     C        0.21270    0.40460    0.64530    1.000
    C179     C        0.17380    0.44206    0.64775    1.000
    C180     C        0.38980    0.34210    0.54220    1.000
    H122     H        0.38430    0.37230    0.52420    1.000
    H123     H        0.42290    0.34050    0.55670    1.000
    H124     H        0.38240    0.31460    0.52090    1.000
    C181     C        0.33170    0.17910    0.73680    1.000
    H125     H        0.33620    0.15020    0.75660    1.000
    H126     H        0.33500    0.20800    0.75690    1.000
    H127     H        0.30010    0.17860    0.71820    1.000
    C182     C        0.54250    0.94467    0.63480    1.000
    C183     C        0.50470    0.90790    0.63570    1.000
    C184     C        0.49630    0.88770    0.67899    1.000
    H128     H        0.51540    0.89770    0.70730    1.000
    C185     C        0.46000    0.85270    0.68200    1.000
    H129     H        0.45370    0.84190    0.71180    1.000
    C186     C        0.43330    0.83390    0.63930    1.000
    C187     C        0.44310    0.85420    0.59540    1.000
    H130     H        0.42510    0.84380    0.56660    1.000
    C188     C        0.47860    0.88870    0.59420    1.000
    H131     H        0.48540    0.89960    0.56450    1.000
    C189     C        0.39790    0.79380    0.64070    1.000
    C190     C        0.39210    0.75900    0.61240    1.000
    H132     H        0.41330    0.75630    0.59000    1.000
    C191     C        0.35630    0.72330    0.61140    1.000
    C192     C        0.32780    0.71780    0.64190    1.000
    C193     C        0.33140    0.75400    0.67220    1.000
    H133     H        0.31070    0.75350    0.69520    1.000
    C194     C        0.36420    0.79510    0.67410    1.000
    C195     C        0.24440    0.62750    0.68570    1.000
    H134     H        0.23800    0.61520    0.71500    1.000
    C196     C        0.28020    0.66120    0.68470    1.000
    H135     H        0.29840    0.67070    0.71370    1.000
    C197     C        0.29050    0.68210    0.64240    1.000
    C198     C        0.26590    0.66430    0.60120    1.000
    H136     H        0.27400    0.67480    0.57180    1.000
    C199     C        0.22910    0.63090    0.60140    1.000
    H137     H        0.21130    0.62110    0.57230    1.000
    C200     C        0.21800    0.61180    0.64360    1.000
    C201     C        0.17740    0.57530    0.64370    1.000
    C202     C        0.33060    0.83210    0.74240    1.000
    H138     H        0.33300    0.86050    0.76300    1.000
    H139     H        0.29840    0.82950    0.72540    1.000
    H140     H        0.33820    0.80300    0.76150    1.000
    C203     C        0.63340    0.96910    0.99532    1.000
    H141     H        0.65580    0.95000    0.01490    1.000
    C204     C        0.63640    0.97140    0.94780    1.000
    H142     H        0.66090    0.95400    0.93630    1.000
    C205     C        0.60570    0.99771    0.91630    1.000
    C206     C        0.57120    0.01810    0.93720    1.000
    H143     H        0.54720    0.03580    0.91800    1.000
    C207     C        0.56880    0.01430    0.98681    1.000
    H144     H        0.54300    0.02840    0.99910    1.000
    C208     C        0.60070    0.04420    0.79100    1.000
    H145     H        0.59270    0.07390    0.77520    1.000
    C209     C        0.59800    0.04070    0.84012    1.000
    H146     H        0.58920    0.06850    0.85620    1.000
    C210     C        0.60715    0.00147    0.86341    1.000
    C211     C        0.62220    0.96360    0.83905    1.000
    H147     H        0.63300    0.93410    0.85390    1.000
    C212     C        0.62050    0.97120    0.79150    1.000
    H148     H        0.62550    0.94270    0.77460    1.000
    N7       N        0.60110    0.99202    0.01491    1.000
    N8       N        0.61400    0.00694    0.76639    1.000
    O37      O        0.55305    0.06359    0.59746    1.000
    O38      O        0.56792    0.06519    0.67780    1.000
    O39      O        0.15308    0.45685    0.60785    1.000
    O40      O        0.16634    0.45531    0.68807    1.000
    O41      O        0.35670    0.34070    0.58250    1.000
    O42      O        0.36700    0.18020    0.70530    1.000
    O43      O        0.56386    0.96027    0.67411    1.000
    O44      O        0.55055    0.95915    0.59394    1.000
    O45      O        0.16995    0.55990    0.68502    1.000
    O46      O        0.15593    0.56088    0.60451    1.000
    O47      O        0.36840    0.67510    0.57990    1.000
    O48      O        0.36320    0.83680    0.70910    1.000
    Zn7      Zn       0.60206    0.01009    0.58817    1.000
    Zn8      Zn       0.61733    0.01021    0.69445    1.000
    C213     C        0.95350    0.42039    0.36360    1.000
    C214     C        0.99210    0.38063    0.36127    1.000
    C215     C        0.01670    0.36180    0.40314    1.000
    H149     H        0.00880    0.37180    0.43270    1.000
    C216     C        0.05280    0.32830    0.40110    1.000
    H150     H        0.07080    0.31720    0.42960    1.000
    C217     C        0.06310    0.31050    0.35690    1.000
    C218     C        0.03790    0.32890    0.31500    1.000
    H151     H        0.04540    0.31820    0.28550    1.000
    C219     C        0.00170    0.36280    0.31615    1.000
    H152     H        0.98380    0.37390    0.28770    1.000
    C220     C        0.10150    0.27440    0.35590    1.000
    C221     C        0.10660    0.23520    0.38650    1.000
    H153     H        0.08540    0.23220    0.40880    1.000
    C222     C        0.14120    0.20050    0.38620    1.000
    C223     C        0.17580    0.20240    0.35710    1.000
    C224     C        0.17250    0.24320    0.32650    1.000
    H154     H        0.19580    0.24730    0.30640    1.000
    C225     C        0.13640    0.27760    0.32460    1.000
    C226     C        0.27890    0.11440    0.39760    1.000
    H155     H        0.29770    0.10470    0.42620    1.000
    C227     C        0.24250    0.14790    0.39830    1.000
    H156     H        0.23610    0.15980    0.42770    1.000
    C228     C        0.21510    0.16430    0.35670    1.000
    C229     C        0.22440    0.14380    0.31390    1.000
    H157     H        0.20610    0.15380    0.28520    1.000
    C230     C        0.25850    0.11070    0.31260    1.000
    H158     H        0.26340    0.09730    0.28310    1.000
    C231     C        0.28730    0.09540    0.35470    1.000
    C232     C        0.32620    0.05794    0.35225    1.000
    C233     C        0.11020    0.15790    0.45780    1.000
    H159     H        0.11570    0.12770    0.47580    1.000
    H160     H        0.07710    0.15950    0.44330    1.000
    H161     H        0.11760    0.18540    0.47910    1.000
    C234     C        0.16830    0.32090    0.26320    1.000
    H162     H        0.16380    0.34980    0.24340    1.000
    H163     H        0.16500    0.29200    0.24310    1.000
    H164     H        0.19990    0.32140    0.28180    1.000
    C235     C        0.95750    0.55533    0.36520    1.000
    C236     C        0.99530    0.59210    0.36430    1.000
    C237     C        0.00370    0.61230    0.32101    1.000
    H165     H        0.98460    0.60230    0.29270    1.000
    C238     C        0.04000    0.64730    0.31800    1.000
    H166     H        0.04630    0.65810    0.28820    1.000
    C239     C        0.06670    0.66610    0.36070    1.000
    C240     C        0.05690    0.64580    0.40460    1.000
    H167     H        0.07490    0.65620    0.43340    1.000
    C241     C        0.02140    0.61130    0.40580    1.000
    H168     H        0.01460    0.60040    0.43550    1.000
    C242     C        0.10210    0.70620    0.35930    1.000
    C243     C        0.10790    0.74100    0.38760    1.000
    H169     H        0.08670    0.74370    0.41000    1.000
    C244     C        0.14370    0.77670    0.38860    1.000
    C245     C        0.17220    0.78220    0.35810    1.000
    C246     C        0.16860    0.74600    0.32780    1.000
    H170     H        0.18930    0.74650    0.30480    1.000
    C247     C        0.13580    0.70490    0.32590    1.000
    C248     C        0.25560    0.87250    0.31430    1.000
    H171     H        0.26200    0.88480    0.28500    1.000
    C249     C        0.21980    0.83880    0.31530    1.000
    H172     H        0.20160    0.82930    0.28630    1.000
    C250     C        0.20950    0.81790    0.35760    1.000
    C251     C        0.23410    0.83570    0.39880    1.000
    H173     H        0.22600    0.82520    0.42820    1.000
    C252     C        0.27090    0.86910    0.39860    1.000
    H174     H        0.28870    0.87890    0.42770    1.000
    C253     C        0.28200    0.88820    0.35640    1.000
    C254     C        0.32260    0.92470    0.35630    1.000
    C255     C        0.16940    0.66790    0.25760    1.000
    H175     H        0.16700    0.63950    0.23700    1.000
    H176     H        0.20160    0.67050    0.27460    1.000
    H177     H        0.16180    0.69700    0.23850    1.000
    C256     C        0.86660    0.53090    0.00468    1.000
    H178     H        0.84420    0.55000    0.98510    1.000
    C257     C        0.86360    0.52860    0.05220    1.000
    H179     H        0.83910    0.54600    0.06370    1.000
    C258     C        0.89430    0.50229    0.08370    1.000
    C259     C        0.92880    0.48190    0.06280    1.000
    H180     H        0.95280    0.46420    0.08200    1.000
    C260     C        0.93120    0.48570    0.01319    1.000
    H181     H        0.95700    0.47160    0.00090    1.000
    C261     C        0.89930    0.45580    0.20900    1.000
    H182     H        0.90730    0.42610    0.22480    1.000
    C262     C        0.90200    0.45930    0.15988    1.000
    H183     H        0.91080    0.43150    0.14380    1.000
    C263     C        0.89285    0.49853    0.13659    1.000
    C264     C        0.87780    0.53640    0.16095    1.000
    H184     H        0.86700    0.56590    0.14610    1.000
    C265     C        0.87950    0.52880    0.20850    1.000
    H185     H        0.87450    0.55730    0.22540    1.000
    N9       N        0.89890    0.50798    0.98509    1.000
    N10      N        0.88600    0.49306    0.23361    1.000
    O49      O        0.94695    0.43641    0.40254    1.000
    O50      O        0.93208    0.43481    0.32220    1.000
    O51      O        0.34692    0.04315    0.39215    1.000
    O52      O        0.33366    0.04469    0.31193    1.000
    O53      O        0.14330    0.15930    0.41750    1.000
    O54      O        0.13300    0.31980    0.29470    1.000
    O55      O        0.93614    0.53973    0.32589    1.000
    O56      O        0.94945    0.54085    0.40606    1.000
    O57      O        0.33005    0.94010    0.31498    1.000
    O58      O        0.34407    0.93912    0.39549    1.000
    O59      O        0.13160    0.82490    0.42010    1.000
    O60      O        0.13680    0.66320    0.29090    1.000
    Zn9      Zn       0.89794    0.48991    0.41183    1.000
    Zn10     Zn       0.88267    0.48979    0.30555    1.000
    C266     C        0.45350    0.92039    0.36360    1.000
    C267     C        0.49210    0.88063    0.36127    1.000
    C268     C        0.51670    0.86180    0.40314    1.000
    H186     H        0.50880    0.87180    0.43270    1.000
    C269     C        0.55280    0.82830    0.40110    1.000
    H187     H        0.57080    0.81720    0.42960    1.000
    C270     C        0.56310    0.81050    0.35690    1.000
    C271     C        0.53790    0.82890    0.31500    1.000
    H188     H        0.54540    0.81820    0.28550    1.000
    C272     C        0.50170    0.86280    0.31615    1.000
    H189     H        0.48380    0.87390    0.28770    1.000
    C273     C        0.60150    0.77440    0.35590    1.000
    C274     C        0.60660    0.73520    0.38650    1.000
    H190     H        0.58540    0.73220    0.40880    1.000
    C275     C        0.64120    0.70050    0.38620    1.000
    C276     C        0.67580    0.70240    0.35710    1.000
    C277     C        0.67250    0.74320    0.32650    1.000
    H191     H        0.69580    0.74730    0.30640    1.000
    C278     C        0.63640    0.77760    0.32460    1.000
    C279     C        0.77890    0.61440    0.39760    1.000
    H192     H        0.79770    0.60470    0.42620    1.000
    C280     C        0.74250    0.64790    0.39830    1.000
    H193     H        0.73610    0.65980    0.42770    1.000
    C281     C        0.71510    0.66430    0.35670    1.000
    C282     C        0.72440    0.64380    0.31390    1.000
    H194     H        0.70610    0.65380    0.28520    1.000
    C283     C        0.75850    0.61070    0.31260    1.000
    H195     H        0.76340    0.59730    0.28310    1.000
    C284     C        0.78730    0.59540    0.35470    1.000
    C285     C        0.82620    0.55794    0.35225    1.000
    C286     C        0.61020    0.65790    0.45780    1.000
    H196     H        0.61570    0.62770    0.47580    1.000
    H197     H        0.57710    0.65950    0.44330    1.000
    H198     H        0.61760    0.68540    0.47910    1.000
    C287     C        0.66830    0.82090    0.26320    1.000
    H199     H        0.66380    0.84980    0.24340    1.000
    H200     H        0.66500    0.79200    0.24310    1.000
    H201     H        0.69990    0.82140    0.28180    1.000
    C288     C        0.45750    0.05533    0.36520    1.000
    C289     C        0.49530    0.09210    0.36430    1.000
    C290     C        0.50370    0.11230    0.32101    1.000
    H202     H        0.48460    0.10230    0.29270    1.000
    C291     C        0.54000    0.14730    0.31800    1.000
    H203     H        0.54630    0.15810    0.28820    1.000
    C292     C        0.56670    0.16610    0.36070    1.000
    C293     C        0.55690    0.14580    0.40460    1.000
    H204     H        0.57490    0.15620    0.43340    1.000
    C294     C        0.52140    0.11130    0.40580    1.000
    H205     H        0.51460    0.10040    0.43550    1.000
    C295     C        0.60210    0.20620    0.35930    1.000
    C296     C        0.60790    0.24100    0.38760    1.000
    H206     H        0.58670    0.24370    0.41000    1.000
    C297     C        0.64370    0.27670    0.38860    1.000
    C298     C        0.67220    0.28220    0.35810    1.000
    C299     C        0.66860    0.24600    0.32780    1.000
    H207     H        0.68930    0.24650    0.30480    1.000
    C300     C        0.63580    0.20490    0.32590    1.000
    C301     C        0.75560    0.37250    0.31430    1.000
    H208     H        0.76200    0.38480    0.28500    1.000
    C302     C        0.71980    0.33880    0.31530    1.000
    H209     H        0.70160    0.32930    0.28630    1.000
    C303     C        0.70950    0.31790    0.35760    1.000
    C304     C        0.73410    0.33570    0.39880    1.000
    H210     H        0.72600    0.32520    0.42820    1.000
    C305     C        0.77090    0.36910    0.39860    1.000
    H211     H        0.78870    0.37890    0.42770    1.000
    C306     C        0.78200    0.38820    0.35640    1.000
    C307     C        0.82260    0.42470    0.35630    1.000
    C308     C        0.66940    0.16790    0.25760    1.000
    H212     H        0.66700    0.13950    0.23700    1.000
    H213     H        0.70160    0.17050    0.27460    1.000
    H214     H        0.66180    0.19700    0.23850    1.000
    C309     C        0.36660    0.03090    0.00468    1.000
    H215     H        0.34420    0.05000    0.98510    1.000
    C310     C        0.36360    0.02860    0.05220    1.000
    H216     H        0.33910    0.04600    0.06370    1.000
    C311     C        0.39430    0.00229    0.08370    1.000
    C312     C        0.42880    0.98190    0.06280    1.000
    H217     H        0.45280    0.96420    0.08200    1.000
    C313     C        0.43120    0.98570    0.01319    1.000
    H218     H        0.45700    0.97160    0.00090    1.000
    C314     C        0.39930    0.95580    0.20900    1.000
    H219     H        0.40730    0.92610    0.22480    1.000
    C315     C        0.40200    0.95930    0.15988    1.000
    H220     H        0.41080    0.93150    0.14380    1.000
    C316     C        0.39285    0.99853    0.13659    1.000
    C317     C        0.37780    0.03640    0.16095    1.000
    H221     H        0.36700    0.06590    0.14610    1.000
    C318     C        0.37950    0.02880    0.20850    1.000
    H222     H        0.37450    0.05730    0.22540    1.000
    N11      N        0.39890    0.00798    0.98509    1.000
    N12      N        0.38600    0.99306    0.23361    1.000
    O61      O        0.44695    0.93641    0.40254    1.000
    O62      O        0.43208    0.93481    0.32220    1.000
    O63      O        0.84692    0.54315    0.39215    1.000
    O64      O        0.83366    0.54469    0.31193    1.000
    O65      O        0.64330    0.65930    0.41750    1.000
    O66      O        0.63300    0.81980    0.29470    1.000
    O67      O        0.43614    0.03973    0.32589    1.000
    O68      O        0.44945    0.04085    0.40606    1.000
    O69      O        0.83005    0.44010    0.31498    1.000
    O70      O        0.84407    0.43912    0.39549    1.000
    O71      O        0.63160    0.32490    0.42010    1.000
    O72      O        0.63680    0.16320    0.29090    1.000
    Zn11     Zn       0.39794    0.98991    0.41183    1.000
    Zn12     Zn       0.38267    0.98979    0.30555    1.000
    C319     C        0.95350    0.57961    0.86360    1.000
    C320     C        0.99210    0.61937    0.86127    1.000
    C321     C        0.01670    0.63820    0.90314    1.000
    H223     H        0.00880    0.62820    0.93270    1.000
    C322     C        0.05280    0.67170    0.90110    1.000
    H224     H        0.07080    0.68280    0.92960    1.000
    C323     C        0.06310    0.68950    0.85690    1.000
    C324     C        0.03790    0.67110    0.81500    1.000
    H225     H        0.04540    0.68180    0.78550    1.000
    C325     C        0.00170    0.63720    0.81615    1.000
    H226     H        0.98380    0.62610    0.78770    1.000
    C326     C        0.10150    0.72560    0.85590    1.000
    C327     C        0.10660    0.76480    0.88650    1.000
    H227     H        0.08540    0.76780    0.90880    1.000
    C328     C        0.14120    0.79950    0.88620    1.000
    C329     C        0.17580    0.79760    0.85710    1.000
    C330     C        0.17250    0.75680    0.82650    1.000
    H228     H        0.19580    0.75270    0.80640    1.000
    C331     C        0.13640    0.72240    0.82460    1.000
    C332     C        0.27890    0.88560    0.89760    1.000
    H229     H        0.29770    0.89530    0.92620    1.000
    C333     C        0.24250    0.85210    0.89830    1.000
    H230     H        0.23610    0.84020    0.92770    1.000
    C334     C        0.21510    0.83570    0.85670    1.000
    C335     C        0.22440    0.85620    0.81390    1.000
    H231     H        0.20610    0.84620    0.78520    1.000
    C336     C        0.25850    0.88930    0.81260    1.000
    H232     H        0.26340    0.90270    0.78310    1.000
    C337     C        0.28730    0.90460    0.85470    1.000
    C338     C        0.32620    0.94206    0.85225    1.000
    C339     C        0.11020    0.84210    0.95780    1.000
    H233     H        0.11570    0.87230    0.97580    1.000
    H234     H        0.07710    0.84050    0.94330    1.000
    H235     H        0.11760    0.81460    0.97910    1.000
    C340     C        0.16830    0.67910    0.76320    1.000
    H236     H        0.16380    0.65020    0.74340    1.000
    H237     H        0.16500    0.70800    0.74310    1.000
    H238     H        0.19990    0.67860    0.78180    1.000
    C341     C        0.95750    0.44467    0.86520    1.000
    C342     C        0.99530    0.40790    0.86430    1.000
    C343     C        0.00370    0.38770    0.82101    1.000
    H239     H        0.98460    0.39770    0.79270    1.000
    C344     C        0.04000    0.35270    0.81800    1.000
    H240     H        0.04630    0.34190    0.78820    1.000
    C345     C        0.06670    0.33390    0.86070    1.000
    C346     C        0.05690    0.35420    0.90460    1.000
    H241     H        0.07490    0.34380    0.93340    1.000
    C347     C        0.02140    0.38870    0.90580    1.000
    H242     H        0.01460    0.39960    0.93550    1.000
    C348     C        0.10210    0.29380    0.85930    1.000
    C349     C        0.10790    0.25900    0.88760    1.000
    H243     H        0.08670    0.25630    0.91000    1.000
    C350     C        0.14370    0.22330    0.88860    1.000
    C351     C        0.17220    0.21780    0.85810    1.000
    C352     C        0.16860    0.25400    0.82780    1.000
    H244     H        0.18930    0.25350    0.80480    1.000
    C353     C        0.13580    0.29510    0.82590    1.000
    C354     C        0.25560    0.12750    0.81430    1.000
    H245     H        0.26200    0.11520    0.78500    1.000
    C355     C        0.21980    0.16120    0.81530    1.000
    H246     H        0.20160    0.17070    0.78630    1.000
    C356     C        0.20950    0.18210    0.85760    1.000
    C357     C        0.23410    0.16430    0.89880    1.000
    H247     H        0.22600    0.17480    0.92820    1.000
    C358     C        0.27090    0.13090    0.89860    1.000
    H248     H        0.28870    0.12110    0.92770    1.000
    C359     C        0.28200    0.11180    0.85640    1.000
    C360     C        0.32260    0.07530    0.85630    1.000
    C361     C        0.16940    0.33210    0.75760    1.000
    H249     H        0.16700    0.36050    0.73700    1.000
    H250     H        0.20160    0.32950    0.77460    1.000
    H251     H        0.16180    0.30300    0.73850    1.000
    C362     C        0.86660    0.46910    0.50468    1.000
    H252     H        0.84420    0.45000    0.48510    1.000
    C363     C        0.86360    0.47140    0.55220    1.000
    H253     H        0.83910    0.45400    0.56370    1.000
    C364     C        0.89430    0.49771    0.58370    1.000
    C365     C        0.92880    0.51810    0.56280    1.000
    H254     H        0.95280    0.53580    0.58200    1.000
    C366     C        0.93120    0.51430    0.51319    1.000
    H255     H        0.95700    0.52840    0.50090    1.000
    C367     C        0.89930    0.54420    0.70900    1.000
    H256     H        0.90730    0.57390    0.72480    1.000
    C368     C        0.90200    0.54070    0.65988    1.000
    H257     H        0.91080    0.56850    0.64380    1.000
    C369     C        0.89285    0.50147    0.63659    1.000
    C370     C        0.87780    0.46360    0.66095    1.000
    H258     H        0.86700    0.43410    0.64610    1.000
    C371     C        0.87950    0.47120    0.70850    1.000
    H259     H        0.87450    0.44270    0.72540    1.000
    N13      N        0.89890    0.49202    0.48509    1.000
    N14      N        0.88600    0.50694    0.73361    1.000
    O73      O        0.94695    0.56359    0.90254    1.000
    O74      O        0.93208    0.56519    0.82220    1.000
    O75      O        0.34692    0.95685    0.89215    1.000
    O76      O        0.33366    0.95531    0.81193    1.000
    O77      O        0.14330    0.84070    0.91750    1.000
    O78      O        0.13300    0.68020    0.79470    1.000
    O79      O        0.93614    0.46027    0.82589    1.000
    O80      O        0.94945    0.45915    0.90606    1.000
    O81      O        0.33005    0.05990    0.81498    1.000
    O82      O        0.34407    0.06088    0.89549    1.000
    O83      O        0.13160    0.17510    0.92010    1.000
    O84      O        0.13680    0.33680    0.79090    1.000
    Zn13     Zn       0.89794    0.51009    0.91183    1.000
    Zn14     Zn       0.88267    0.51021    0.80554    1.000
    C372     C        0.45350    0.07961    0.86360    1.000
    C373     C        0.49210    0.11937    0.86127    1.000
    C374     C        0.51670    0.13820    0.90314    1.000
    H260     H        0.50880    0.12820    0.93270    1.000
    C375     C        0.55280    0.17170    0.90110    1.000
    H261     H        0.57080    0.18280    0.92960    1.000
    C376     C        0.56310    0.18950    0.85690    1.000
    C377     C        0.53790    0.17110    0.81500    1.000
    H262     H        0.54540    0.18180    0.78550    1.000
    C378     C        0.50170    0.13720    0.81615    1.000
    H263     H        0.48380    0.12610    0.78770    1.000
    C379     C        0.60150    0.22560    0.85590    1.000
    C380     C        0.60660    0.26480    0.88650    1.000
    H264     H        0.58540    0.26780    0.90880    1.000
    C381     C        0.64120    0.29950    0.88620    1.000
    C382     C        0.67580    0.29760    0.85710    1.000
    C383     C        0.67250    0.25680    0.82650    1.000
    H265     H        0.69580    0.25270    0.80640    1.000
    C384     C        0.63640    0.22240    0.82460    1.000
    C385     C        0.77890    0.38560    0.89760    1.000
    H266     H        0.79770    0.39530    0.92620    1.000
    C386     C        0.74250    0.35210    0.89830    1.000
    H267     H        0.73610    0.34020    0.92770    1.000
    C387     C        0.71510    0.33570    0.85670    1.000
    C388     C        0.72440    0.35620    0.81390    1.000
    H268     H        0.70610    0.34620    0.78520    1.000
    C389     C        0.75850    0.38930    0.81260    1.000
    H269     H        0.76340    0.40270    0.78310    1.000
    C390     C        0.78730    0.40460    0.85470    1.000
    C391     C        0.82620    0.44206    0.85225    1.000
    C392     C        0.61020    0.34210    0.95780    1.000
    H270     H        0.61570    0.37230    0.97580    1.000
    H271     H        0.57710    0.34050    0.94330    1.000
    H272     H        0.61760    0.31460    0.97910    1.000
    C393     C        0.66830    0.17910    0.76320    1.000
    H273     H        0.66380    0.15020    0.74340    1.000
    H274     H        0.66500    0.20800    0.74310    1.000
    H275     H        0.69990    0.17860    0.78180    1.000
    C394     C        0.45750    0.94467    0.86520    1.000
    C395     C        0.49530    0.90790    0.86430    1.000
    C396     C        0.50370    0.88770    0.82101    1.000
    H276     H        0.48460    0.89770    0.79270    1.000
    C397     C        0.54000    0.85270    0.81800    1.000
    H277     H        0.54630    0.84190    0.78820    1.000
    C398     C        0.56670    0.83390    0.86070    1.000
    C399     C        0.55690    0.85420    0.90460    1.000
    H278     H        0.57490    0.84380    0.93340    1.000
    C400     C        0.52140    0.88870    0.90580    1.000
    H279     H        0.51460    0.89960    0.93550    1.000
    C401     C        0.60210    0.79380    0.85930    1.000
    C402     C        0.60790    0.75900    0.88760    1.000
    H280     H        0.58670    0.75630    0.91000    1.000
    C403     C        0.64370    0.72330    0.88860    1.000
    C404     C        0.67220    0.71780    0.85810    1.000
    C405     C        0.66860    0.75400    0.82780    1.000
    H281     H        0.68930    0.75350    0.80480    1.000
    C406     C        0.63580    0.79510    0.82590    1.000
    C407     C        0.75560    0.62750    0.81430    1.000
    H282     H        0.76200    0.61520    0.78500    1.000
    C408     C        0.71980    0.66120    0.81530    1.000
    H283     H        0.70160    0.67070    0.78630    1.000
    C409     C        0.70950    0.68210    0.85760    1.000
    C410     C        0.73410    0.66430    0.89880    1.000
    H284     H        0.72600    0.67480    0.92820    1.000
    C411     C        0.77090    0.63090    0.89860    1.000
    H285     H        0.78870    0.62110    0.92770    1.000
    C412     C        0.78200    0.61180    0.85640    1.000
    C413     C        0.82260    0.57530    0.85630    1.000
    C414     C        0.66940    0.83210    0.75760    1.000
    H286     H        0.66700    0.86050    0.73700    1.000
    H287     H        0.70160    0.82950    0.77460    1.000
    H288     H        0.66180    0.80300    0.73850    1.000
    C415     C        0.36660    0.96910    0.50468    1.000
    H289     H        0.34420    0.95000    0.48510    1.000
    C416     C        0.36360    0.97140    0.55220    1.000
    H290     H        0.33910    0.95400    0.56370    1.000
    C417     C        0.39430    0.99771    0.58370    1.000
    C418     C        0.42880    0.01810    0.56280    1.000
    H291     H        0.45280    0.03580    0.58200    1.000
    C419     C        0.43120    0.01430    0.51319    1.000
    H292     H        0.45700    0.02840    0.50090    1.000
    C420     C        0.39930    0.04420    0.70900    1.000
    H293     H        0.40730    0.07390    0.72480    1.000
    C421     C        0.40200    0.04070    0.65988    1.000
    H294     H        0.41080    0.06850    0.64380    1.000
    C422     C        0.39285    0.00147    0.63659    1.000
    C423     C        0.37780    0.96360    0.66095    1.000
    H295     H        0.36700    0.93410    0.64610    1.000
    C424     C        0.37950    0.97120    0.70850    1.000
    H296     H        0.37450    0.94270    0.72540    1.000
    N15      N        0.39890    0.99202    0.48509    1.000
    N16      N        0.38600    0.00694    0.73361    1.000
    O85      O        0.44695    0.06359    0.90254    1.000
    O86      O        0.43208    0.06519    0.82220    1.000
    O87      O        0.84692    0.45685    0.89215    1.000
    O88      O        0.83366    0.45531    0.81193    1.000
    O89      O        0.64330    0.34070    0.91750    1.000
    O90      O        0.63300    0.18020    0.79470    1.000
    O91      O        0.43614    0.96027    0.82589    1.000
    O92      O        0.44945    0.95915    0.90606    1.000
    O93      O        0.83005    0.55990    0.81498    1.000
    O94      O        0.84407    0.56088    0.89549    1.000
    O95      O        0.63160    0.67510    0.92010    1.000
    O96      O        0.63680    0.83680    0.79090    1.000
    Zn15     Zn       0.39794    0.01009    0.91183    1.000
    Zn16     Zn       0.38267    0.01021    0.80554    1.000
