# CIF file generated by openbabel 3.1.0, see https://openbabel.org
data_I
_chemical_name_common 'GOQXAN_clean'
_cell_length_a 6.1983
_cell_length_b 15.007
_cell_length_c 16.5317
_cell_angle_alpha 90
_cell_angle_beta 90
_cell_angle_gamma 90
_space_group_name_H-M_alt 'P 1'
_space_group_name_Hall 'P 1'
loop_
    _symmetry_equiv_pos_as_xyz
    x,y,z
loop_
    _atom_site_label
    _atom_site_type_symbol
    _atom_site_fract_x
    _atom_site_fract_y
    _atom_site_fract_z
    _atom_site_occupancy
    Cd1      Cd       0.59273    0.29166    0.35535    1.000
    Cd2      Cd       0.40727    0.79166    0.14465    1.000
    Cd3      Cd       0.90727    0.70834    0.85535    1.000
    Cd4      Cd       0.09273    0.20834    0.64465    1.000
    H1       H        0.63680    0.10810    0.25230    1.000
    H2       H        0.46460    0.29870    0.68050    1.000
    H3       H        0.09270    0.02610    0.74540    1.000
    H4       H        0.59270    0.47390    0.25460    1.000
    H5       H        0.41300    0.15600    0.45310    1.000
    H6       H        0.09790    0.47330    0.62650    1.000
    H7       H        0.04450    0.38710    0.39700    1.000
    H8       H        0.11860    0.45220    0.53380    1.000
    H9       H        0.80320    0.59140    0.21200    1.000
    H10      H        0.38140    0.54780    0.03380    1.000
    H11      H        0.88140    0.95220    0.96620    1.000
    H12      H        0.53540    0.79870    0.81950    1.000
    H13      H        0.54820    0.92480    0.89060    1.000
    H14      H        0.69680    0.40860    0.71200    1.000
    H15      H        0.59790    0.02670    0.37350    1.000
    H16      H        0.21890    0.67680    0.29370    1.000
    H17      H        0.96460    0.20130    0.31950    1.000
    H18      H        0.77400    0.00210    0.64520    1.000
    H19      H        0.40210    0.52670    0.12650    1.000
    H20      H        0.13680    0.39190    0.74770    1.000
    H21      H        0.28110    0.32320    0.79370    1.000
    H22      H        0.71890    0.82320    0.70630    1.000
    H23      H        0.40730    0.97390    0.24540    1.000
    H24      H        0.27400    0.49790    0.35480    1.000
    H25      H        0.19680    0.09140    0.28800    1.000
    H26      H        0.30320    0.90860    0.78800    1.000
    H27      H        0.08700    0.84400    0.95310    1.000
    H28      H        0.03540    0.70130    0.18050    1.000
    H29      H        0.95180    0.07520    0.39060    1.000
    H30      H        0.91300    0.34400    0.54690    1.000
    H31      H        0.58700    0.65600    0.04690    1.000
    H32      H        0.72600    0.99790    0.14520    1.000
    H33      H        0.90210    0.97330    0.87350    1.000
    H34      H        0.04820    0.57520    0.10940    1.000
    H35      H        0.78110    0.17680    0.20630    1.000
    H36      H        0.45550    0.61290    0.89700    1.000
    H37      H        0.95550    0.88710    0.10300    1.000
    H38      H        0.22600    0.50210    0.85480    1.000
    H39      H        0.45180    0.42480    0.60940    1.000
    H40      H        0.54450    0.11290    0.60300    1.000
    H41      H        0.36320    0.60810    0.24770    1.000
    H42      H        0.61860    0.04780    0.46620    1.000
    H43      H        0.86320    0.89190    0.75230    1.000
    H44      H        0.90730    0.52610    0.75460    1.000
    C1       C        0.73160    0.47920    0.27530    1.000
    C2       C        0.11840    0.42580    0.58740    1.000
    C3       C        0.00340    0.92750    0.14170    1.000
    C4       C        0.89010    0.17870    0.47220    1.000
    C5       C        0.71810    0.86790    0.74870    1.000
    C6       C        0.88160    0.92580    0.91260    1.000
    C7       C        0.66070    0.87950    0.89700    1.000
    C8       C        0.63530    0.00530    0.66650    1.000
    C9       C        0.49660    0.07250    0.64170    1.000
    C10      C        0.64210    0.45010    0.74840    1.000
    C11      C        0.38160    0.57420    0.08740    1.000
    C12      C        0.43200    0.44290    0.77730    1.000
    C13      C        0.14210    0.04990    0.25160    1.000
    C14      C        0.35790    0.95010    0.75160    1.000
    C15      C        0.93200    0.05710    0.22270    1.000
    C16      C        0.06800    0.55710    0.27730    1.000
    C17      C        0.56800    0.94290    0.72270    1.000
    C18      C        0.86470    0.99470    0.16650    1.000
    C19      C        0.33930    0.37950    0.60300    1.000
    C20      C        0.36470    0.50530    0.83350    1.000
    C21      C        0.85790    0.54990    0.24840    1.000
    C22      C        0.13530    0.49470    0.33350    1.000
    C23      C        0.26840    0.97920    0.22470    1.000
    C24      C        0.21810    0.63210    0.25130    1.000
    C25      C        0.10990    0.67870    0.02780    1.000
    C26      C        0.61840    0.07420    0.41260    1.000
    C27      C        0.23160    0.02080    0.72470    1.000
    C28      C        0.28190    0.36790    0.75130    1.000
    C29      C        0.39010    0.32130    0.52780    1.000
    C30      C        0.99660    0.42750    0.35830    1.000
    C31      C        0.16070    0.62050    0.10300    1.000
    C32      C        0.60990    0.82130    0.97220    1.000
    C33      C        0.83930    0.12050    0.39700    1.000
    C34      C        0.50340    0.57250    0.85830    1.000
    C35      C        0.76840    0.52080    0.77530    1.000
    C36      C        0.78190    0.13210    0.24870    1.000
    N1       N        0.79800    0.41840    0.32900    1.000
    N2       N        0.70200    0.58160    0.82900    1.000
    N3       N        0.66830    0.82370    0.82510    1.000
    N4       N        0.29800    0.08160    0.67100    1.000
    N5       N        0.33170    0.32370    0.67490    1.000
    N6       N        0.16830    0.67630    0.17490    1.000
    N7       N        0.83170    0.17630    0.32510    1.000
    N8       N        0.20200    0.91840    0.17100    1.000
    O1       O        0.13980    0.76050    0.03470    1.000
    O2       O        0.05380    0.86420    0.90650    1.000
    O3       O        0.44980    0.36110    0.46530    1.000
    O4       O        0.44620    0.13580    0.40650    1.000
    O5       O        0.63980    0.73950    0.96530    1.000
    O6       O        0.55020    0.86110    0.03470    1.000
    O7       O        0.55380    0.63580    0.09350    1.000
    O8       O        0.36020    0.23950    0.53470    1.000
    O9       O        0.94980    0.13890    0.53470    1.000
    O10      O        0.05020    0.63890    0.96530    1.000
    O11      O        0.94620    0.36420    0.59350    1.000
    O12      O        0.86020    0.26050    0.46530    1.000
