# CIF file generated by openbabel 3.1.0, see https://openbabel.org
data_I
_chemical_name_common 'image0'
_cell_length_a 13.862
_cell_length_b 14.477
_cell_length_c 14.664
_cell_angle_alpha 95.331
_cell_angle_beta 106.021
_cell_angle_gamma 118.084
_space_group_name_H-M_alt 'P 1'
_space_group_name_Hall 'P 1'
loop_
    _symmetry_equiv_pos_as_xyz
    x,y,z
loop_
    _atom_site_label
    _atom_site_type_symbol
    _atom_site_fract_x
    _atom_site_fract_y
    _atom_site_fract_z
    _atom_site_occupancy
    Cd1      Cd       0.62151    0.71356    0.41856    1.000
    Cd2      Cd       0.52645    0.72488    0.16923    1.000
    Cd3      Cd       0.28356    0.79385    0.13661    1.000
    O1       O        0.44490    0.97440    0.16310    1.000
    O2       O        0.48260    0.85890    0.22820    1.000
    O3       O        0.68560    0.88810    0.42480    1.000
    O4       O        0.69590    0.86350    0.27770    1.000
    O5       O        0.91090    0.10070    0.46470    1.000
    O6       O        0.84880    0.14170    0.85320    1.000
    O7       O        0.74770    0.16310    0.72290    1.000
    O8       O        0.44940    0.52930    0.36480    1.000
    O9       O        0.44980    0.64660    0.27960    1.000
    O10      O        0.19950    0.61690    0.15300    1.000
    O11      O        0.32880    0.64790    0.08120    1.000
    O12      O        0.09840    0.41730    0.96370    1.000
    O13      O        0.32080    0.36590    0.67990    1.000
    O14      O        0.38410    0.36770    0.83540    1.000
    N1       N        0.55770    0.73820    0.54580    1.000
    N2       N        0.53640    0.75130    0.02230    1.000
    N3       N        0.19680    0.76620    0.97200    1.000
    N4       N        0.78010    0.72880    0.54190    1.000
    C1       C        0.82350    0.11730    0.41020    1.000
    C2       C        0.71880    0.02990    0.34870    1.000
    C3       C        0.69660    0.91770    0.35020    1.000
    C4       C        0.63390    0.04470    0.28510    1.000
    C5       C        0.51310    0.95390    0.22070    1.000
    C6       C        0.66190    0.15290    0.28830    1.000
    H1       H        0.60870    0.16590    0.24600    1.000
    C7       C        0.76700    0.23850    0.35350    1.000
    H2       H        0.78290    0.30890    0.35640    1.000
    C8       C        0.84950    0.22210    0.41470    1.000
    H3       H        0.92090    0.28060    0.45810    1.000
    C9       C        0.93400    0.10780    0.56410    1.000
    C10      C        0.86390    0.11700    0.61160    1.000
    H4       H        0.79800    0.11890    0.57690    1.000
    C11      C        0.89310    0.12320    0.71170    1.000
    C12      C        0.82590    0.14140    0.76490    1.000
    C13      C        0.99180    0.11920    0.76050    1.000
    H5       H        0.01270    0.12390    0.82750    1.000
    C14      C        0.05930    0.10830    0.71160    1.000
    H6       H        0.12450    0.10480    0.74540    1.000
    C15      C        0.03020    0.10260    0.61240    1.000
    H7       H        0.07540    0.09540    0.57900    1.000
    C16      C        0.15890    0.39420    0.04140    1.000
    C17      C        0.24290    0.48000    0.12360    1.000
    C18      C        0.25910    0.59000    0.12090    1.000
    C19      C        0.30160    0.45750    0.20390    1.000
    C20      C        0.40400    0.54800    0.28890    1.000
    C21      C        0.27020    0.35300    0.20370    1.000
    H8       H        0.30690    0.33800    0.25860    1.000
    C22      C        0.18420    0.26940    0.12230    1.000
    H9       H        0.16310    0.19840    0.12310    1.000
    C23      C        0.12940    0.28930    0.04070    1.000
    H10      H        0.07300    0.23260    0.98530    1.000
    C24      C        0.11860    0.41000    0.87700    1.000
    C25      C        0.20830    0.39720    0.86560    1.000
    H11      H        0.25960    0.39240    0.91850    1.000
    C26      C        0.22060    0.39180    0.77680    1.000
    C27      C        0.31640    0.37370    0.76290    1.000
    C28      C        0.14570    0.39890    0.69800    1.000
    H12      H        0.15540    0.39640    0.63770    1.000
    C29      C        0.05430    0.40990    0.70980    1.000
    H13      H        0.00280    0.41480    0.65710    1.000
    C30      C        0.04080    0.41340    0.79870    1.000
    H14      H        0.97850    0.41810    0.80580    1.000
    C31      C        0.49130    0.65050    0.57150    1.000
    H15      H        0.45050    0.58360    0.52570    1.000
    C32      C        0.47970    0.65300    0.65960    1.000
    H16      H        0.43190    0.58880    0.67280    1.000
    C33      C        0.53800    0.75000    0.73070    1.000
    C34      C        0.60590    0.84380    0.70490    1.000
    H17      H        0.64550    0.91180    0.74890    1.000
    C35      C        0.61240    0.83290    0.61400    1.000
    H18      H        0.65820    0.89580    0.59790    1.000
    C36      C        0.53750    0.75280    0.83100    1.000
    C37      C        0.45240    0.67380    0.85020    1.000
    H19      H        0.39220    0.61350    0.79930    1.000
    C38      C        0.45130    0.67930    0.94520    1.000
    H20      H        0.38420    0.62720    0.95320    1.000
    C39      C        0.61140    0.83030    0.00180    1.000
    H21      H        0.66930    0.89060    0.05360    1.000
    C40      C        0.61460    0.83490    0.90980    1.000
    H22      H        0.67280    0.89760    0.90230    1.000
    C41      C        0.21840    0.84890    0.93250    1.000
    H23      H        0.28830    0.91430    0.96630    1.000
    C42      C        0.14520    0.84590    0.84500    1.000
    H24      H        0.16440    0.90770    0.82200    1.000
    C43      C        0.04280    0.74850    0.79260    1.000
    C44      C        0.02220    0.66000    0.83000    1.000
    H25      H        0.95580    0.59220    0.79590    1.000
    C45      C        0.10040    0.67320    0.91730    1.000
    H26      H        0.08500    0.61200    0.94060    1.000
    C46      C        0.95460    0.74120    0.70230    1.000
    C47      C        0.94390    0.82950    0.69180    1.000
    H27      H        0.99620    0.89570    0.73870    1.000
    C48      C        0.85690    0.82080    0.61290    1.000
    H28      H        0.85100    0.88170    0.60840    1.000
    C49      C        0.79440    0.64450    0.55150    1.000
    H29      H        0.74420    0.58020    0.50200    1.000
    C50      C        0.87690    0.64680    0.62850    1.000
    H30      H        0.88120    0.58490    0.63150    1.000
    Cd4      Cd       0.37849    0.28644    0.58144    1.000
    Cd5      Cd       0.47355    0.27512    0.83077    1.000
    Cd6      Cd       0.71644    0.20615    0.86339    1.000
    O15      O        0.55510    0.02560    0.83690    1.000
    O16      O        0.51740    0.14110    0.77180    1.000
    O17      O        0.31440    0.11190    0.57520    1.000
    O18      O        0.30410    0.13650    0.72230    1.000
    O19      O        0.08910    0.89930    0.53530    1.000
    O20      O        0.15120    0.85830    0.14680    1.000
    O21      O        0.25230    0.83690    0.27710    1.000
    O22      O        0.55060    0.47070    0.63520    1.000
    O23      O        0.55020    0.35340    0.72040    1.000
    O24      O        0.80050    0.38310    0.84700    1.000
    O25      O        0.67120    0.35210    0.91880    1.000
    O26      O        0.90160    0.58270    0.03630    1.000
    O27      O        0.67920    0.63410    0.32010    1.000
    O28      O        0.61590    0.63230    0.16460    1.000
    N5       N        0.44230    0.26180    0.45420    1.000
    N6       N        0.46360    0.24870    0.97770    1.000
    N7       N        0.80320    0.23380    0.02800    1.000
    N8       N        0.21990    0.27120    0.45810    1.000
    C51      C        0.17650    0.88270    0.58980    1.000
    C52      C        0.28120    0.97010    0.65130    1.000
    C53      C        0.30340    0.08230    0.64980    1.000
    C54      C        0.36610    0.95530    0.71490    1.000
    C55      C        0.48690    0.04610    0.77930    1.000
    C56      C        0.33810    0.84710    0.71170    1.000
    H31      H        0.39130    0.83410    0.75400    1.000
    C57      C        0.23300    0.76150    0.64650    1.000
    H32      H        0.21710    0.69110    0.64360    1.000
    C58      C        0.15050    0.77790    0.58530    1.000
    H33      H        0.07910    0.71940    0.54190    1.000
    C59      C        0.06600    0.89220    0.43590    1.000
    C60      C        0.13610    0.88300    0.38840    1.000
    H34      H        0.20200    0.88110    0.42310    1.000
    C61      C        0.10690    0.87680    0.28830    1.000
    C62      C        0.17410    0.85860    0.23510    1.000
    C63      C        0.00820    0.88080    0.23950    1.000
    H35      H        0.98730    0.87610    0.17250    1.000
    C64      C        0.94070    0.89170    0.28840    1.000
    H36      H        0.87550    0.89520    0.25460    1.000
    C65      C        0.96980    0.89740    0.38760    1.000
    H37      H        0.92460    0.90460    0.42100    1.000
    C66      C        0.84110    0.60580    0.95860    1.000
    C67      C        0.75710    0.52000    0.87640    1.000
    C68      C        0.74090    0.41000    0.87910    1.000
    C69      C        0.69840    0.54250    0.79610    1.000
    C70      C        0.59600    0.45200    0.71110    1.000
    C71      C        0.72980    0.64700    0.79630    1.000
    H38      H        0.69310    0.66200    0.74140    1.000
    C72      C        0.81580    0.73060    0.87770    1.000
    H39      H        0.83690    0.80160    0.87690    1.000
    C73      C        0.87060    0.71070    0.95930    1.000
    H40      H        0.92700    0.76740    0.01470    1.000
    C74      C        0.88140    0.59000    0.12300    1.000
    C75      C        0.79170    0.60280    0.13440    1.000
    H41      H        0.74040    0.60760    0.08150    1.000
    C76      C        0.77940    0.60820    0.22320    1.000
    C77      C        0.68360    0.62630    0.23710    1.000
    C78      C        0.85430    0.60110    0.30200    1.000
    H42      H        0.84460    0.60360    0.36230    1.000
    C79      C        0.94570    0.59010    0.29020    1.000
    H43      H        0.99720    0.58520    0.34290    1.000
    C80      C        0.95920    0.58660    0.20130    1.000
    H44      H        0.02150    0.58190    0.19420    1.000
    C81      C        0.50870    0.34950    0.42850    1.000
    H45      H        0.54950    0.41640    0.47430    1.000
    C82      C        0.52030    0.34700    0.34040    1.000
    H46      H        0.56810    0.41120    0.32720    1.000
    C83      C        0.46200    0.25000    0.26930    1.000
    C84      C        0.39410    0.15620    0.29510    1.000
    H47      H        0.35450    0.08820    0.25110    1.000
    C85      C        0.38760    0.16710    0.38600    1.000
    H48      H        0.34180    0.10420    0.40210    1.000
    C86      C        0.46250    0.24720    0.16900    1.000
    C87      C        0.54760    0.32620    0.14980    1.000
    H49      H        0.60780    0.38650    0.20070    1.000
    C88      C        0.54870    0.32070    0.05480    1.000
    H50      H        0.61580    0.37280    0.04680    1.000
    C89      C        0.38860    0.16970    0.99820    1.000
    H51      H        0.33070    0.10940    0.94640    1.000
    C90      C        0.38540    0.16510    0.09020    1.000
    H52      H        0.32720    0.10240    0.09770    1.000
    C91      C        0.78160    0.15110    0.06750    1.000
    H53      H        0.71170    0.08570    0.03370    1.000
    C92      C        0.85480    0.15410    0.15500    1.000
    H54      H        0.83560    0.09230    0.17800    1.000
    C93      C        0.95720    0.25150    0.20740    1.000
    C94      C        0.97780    0.34000    0.17000    1.000
    H55      H        0.04420    0.40780    0.20410    1.000
    C95      C        0.89960    0.32680    0.08270    1.000
    H56      H        0.91500    0.38800    0.05940    1.000
    C96      C        0.04540    0.25880    0.29770    1.000
    C97      C        0.05610    0.17050    0.30820    1.000
    H57      H        0.00380    0.10430    0.26130    1.000
    C98      C        0.14310    0.17920    0.38710    1.000
    H58      H        0.14900    0.11830    0.39160    1.000
    C99      C        0.20560    0.35550    0.44850    1.000
    H59      H        0.25580    0.41980    0.49800    1.000
    C100     C        0.12310    0.35320    0.37150    1.000
    H60      H        0.11880    0.41510    0.36850    1.000
