# CIF file generated by openbabel 3.1.0, see https://openbabel.org
data_I
_chemical_name_common 'BIMDIL_clean'
_cell_length_a 8.4671
_cell_length_b 8.4671
_cell_length_c 14.4437
_cell_angle_alpha 90
_cell_angle_beta 90
_cell_angle_gamma 90
_space_group_name_H-M_alt 'P 1'
_space_group_name_Hall 'P 1'
loop_
    _symmetry_equiv_pos_as_xyz
    x,y,z
loop_
    _atom_site_label
    _atom_site_type_symbol
    _atom_site_fract_x
    _atom_site_fract_y
    _atom_site_fract_z
    _atom_site_occupancy
    Cu1      Cu       0.50000    0.85300    0.00000    1.000
    Cu2      Cu       0.50000    0.14700    0.00000    1.000
    Cu3      Cu       0.14700    0.50000    0.50000    1.000
    Cu4      Cu       0.85300    0.50000    0.50000    1.000
    H1       H        0.75590    0.85000    0.71050    1.000
    H2       H        0.24410    0.15000    0.71050    1.000
    H3       H        0.15000    0.75590    0.21050    1.000
    H4       H        0.85000    0.24410    0.21050    1.000
    H5       H        0.24410    0.85000    0.28950    1.000
    H6       H        0.75590    0.15000    0.28950    1.000
    H7       H        0.85000    0.75590    0.78950    1.000
    H8       H        0.15000    0.24410    0.78950    1.000
    H9       H        0.24410    0.15000    0.28950    1.000
    H10      H        0.75590    0.85000    0.28950    1.000
    H11      H        0.85000    0.24410    0.78950    1.000
    H12      H        0.15000    0.75590    0.78950    1.000
    H13      H        0.75590    0.15000    0.71050    1.000
    H14      H        0.24410    0.85000    0.71050    1.000
    H15      H        0.15000    0.24410    0.21050    1.000
    H16      H        0.85000    0.75590    0.21050    1.000
    H17      H        0.00000    0.09470    0.91320    1.000
    H18      H        0.00000    0.90530    0.91320    1.000
    H19      H        0.90530    0.00000    0.41320    1.000
    H20      H        0.09470    0.00000    0.41320    1.000
    H21      H        0.00000    0.09470    0.08680    1.000
    H22      H        0.00000    0.90530    0.08680    1.000
    H23      H        0.09470    0.00000    0.58680    1.000
    H24      H        0.90530    0.00000    0.58680    1.000
    C1       C        0.71230    0.00000    0.87830    1.000
    C2       C        0.85090    0.00000    0.81110    1.000
    C3       C        0.28770    0.00000    0.87830    1.000
    C4       C        0.14910    0.00000    0.81110    1.000
    C5       C        0.00000    0.71230    0.37830    1.000
    C6       C        0.00000    0.85090    0.31110    1.000
    C7       C        0.00000    0.28770    0.37830    1.000
    C8       C        0.00000    0.14910    0.31110    1.000
    C9       C        0.28770    0.00000    0.12170    1.000
    C10      C        0.14910    0.00000    0.18890    1.000
    C11      C        0.71230    0.00000    0.12170    1.000
    C12      C        0.85090    0.00000    0.18890    1.000
    C13      C        0.00000    0.71230    0.62170    1.000
    C14      C        0.00000    0.85090    0.68890    1.000
    C15      C        0.00000    0.28770    0.62170    1.000
    C16      C        0.00000    0.14910    0.68890    1.000
    C17      C        0.85140    0.85140    0.75000    1.000
    C18      C        0.14860    0.14860    0.75000    1.000
    C19      C        0.14860    0.85140    0.25000    1.000
    C20      C        0.85140    0.14860    0.25000    1.000
    C21      C        0.14860    0.14860    0.25000    1.000
    C22      C        0.85140    0.85140    0.25000    1.000
    C23      C        0.85140    0.14860    0.75000    1.000
    C24      C        0.14860    0.85140    0.75000    1.000
    C25      C        0.00000    0.00000    0.87300    1.000
    C26      C        0.00000    0.00000    0.37300    1.000
    C27      C        0.00000    0.00000    0.12700    1.000
    C28      C        0.00000    0.00000    0.62700    1.000
    O1       O        0.66180    0.86830    0.90580    1.000
    O2       O        0.33820    0.13170    0.90580    1.000
    O3       O        0.13170    0.66180    0.40580    1.000
    O4       O        0.86830    0.33820    0.40580    1.000
    O5       O        0.33820    0.86830    0.09420    1.000
    O6       O        0.66180    0.13170    0.09420    1.000
    O7       O        0.86830    0.66180    0.59420    1.000
    O8       O        0.13170    0.33820    0.59420    1.000
    O9       O        0.33820    0.13170    0.09420    1.000
    O10      O        0.66180    0.86830    0.09420    1.000
    O11      O        0.86830    0.33820    0.59420    1.000
    O12      O        0.13170    0.66180    0.59420    1.000
    O13      O        0.66180    0.13170    0.90580    1.000
    O14      O        0.33820    0.86830    0.90580    1.000
    O15      O        0.13170    0.33820    0.40580    1.000
    O16      O        0.86830    0.66180    0.40580    1.000
