# CIF file generated by openbabel 3.1.0, see https://openbabel.org
data_I
_chemical_name_common 'ja512311a_si_007_tobacco'
_cell_length_a 37.1295
_cell_length_b 37.1295
_cell_length_c 30.052
_cell_angle_alpha 90
_cell_angle_beta 90
_cell_angle_gamma 120
_space_group_name_H-M_alt 'P 1'
_space_group_name_Hall 'P 1'
loop_
    _symmetry_equiv_pos_as_xyz
    x,y,z
loop_
    _atom_site_label
    _atom_site_type_symbol
    _atom_site_fract_x
    _atom_site_fract_y
    _atom_site_fract_z
    _atom_site_occupancy
    X1       C        0.02103    0.97886    0.24928    1.000
    C2       C        0.97707    0.95748    0.24667    1.000
    X3       C        0.95449    0.97875    0.24701    1.000
    C4       C        0.97671    0.02266    0.24824    1.000
    X5       C        0.02082    0.04580    0.25020    1.000
    C6       C        0.04213    0.02292    0.25143    1.000
    H7       H        0.95989    0.92384    0.24728    1.000
    H8       H        0.95900    0.03852    0.24888    1.000
    H9       H        0.07567    0.03947    0.25004    1.000
    X10      C        0.04387    0.02348    0.74909    1.000
    C11      C        0.02127    0.04502    0.74753    1.000
    X12      C        0.97730    0.02380    0.74906    1.000
    C13      C        0.95565    0.97992    0.75099    1.000
    X14      C        0.97694    0.95742    0.75133    1.000
    C15      C        0.02077    0.97942    0.75089    1.000
    H16      H        0.03782    0.07865    0.74797    1.000
    H17      H        0.92197    0.96298    0.75085    1.000
    H18      H        0.03663    0.96165    0.75055    1.000
    X19      C        0.30905    0.62384    0.25249    1.000
    C20      C        0.35279    0.64614    0.25381    1.000
    X21      C        0.37498    0.68989    0.25504    1.000
    C22      C        0.35264    0.71136    0.25517    1.000
    X23      C        0.30878    0.68990    0.25357    1.000
    C24      C        0.28742    0.64603    0.25219    1.000
    H25      H        0.36966    0.62934    0.25382    1.000
    H26      H        0.36958    0.74495    0.25762    1.000
    H27      H        0.25385    0.62899    0.24965    1.000
    X28      C        0.62045    0.31249    0.75370    1.000
    C29      C        0.64297    0.29119    0.75414    1.000
    X30      C        0.68672    0.31281    0.75357    1.000
    C31      C        0.70815    0.35656    0.75284    1.000
    X32      C        0.68664    0.37888    0.75287    1.000
    C33      C        0.64274    0.35639    0.75321    1.000
    H34      H        0.62646    0.25757    0.75605    1.000
    H35      H        0.74177    0.37321    0.75103    1.000
    H36      H        0.62584    0.37312    0.75306    1.000
    X37      C        0.38143    0.27174    0.03615    1.000
    C38      C        0.35382    0.27824    0.06297    1.000
    X39      C        0.36439    0.29411    0.10662    1.000
    C40      C        0.40294    0.30260    0.12434    1.000
    X41      C        0.43115    0.29616    0.09900    1.000
    C42      C        0.42023    0.28115    0.05504    1.000
    H43      H        0.32439    0.27254    0.04955    1.000
    H44      H        0.41106    0.31441    0.15799    1.000
    H45      H        0.44186    0.27569    0.03618    1.000
    X46      C        0.38867    0.11034    0.46810    1.000
    C47      C        0.36043    0.07549    0.44325    1.000
    X48      C        0.36953    0.06885    0.39966    1.000
    C49      C        0.40792    0.09809    0.38079    1.000
    X50      C        0.43725    0.13452    0.40403    1.000
    C51      C        0.42705    0.13939    0.44848    1.000
    H52      H        0.33139    0.05277    0.45845    1.000
    H53      H        0.41463    0.09158    0.34778    1.000
    H54      H        0.44750    0.16688    0.46743    1.000
    X55      C        0.72760    0.10903    0.03924    1.000
    C56      C        0.71843    0.07345    0.06430    1.000
    X57      C        0.70182    0.06774    0.10757    1.000
    C58      C        0.69355    0.09797    0.12546    1.000
    X59      C        0.70214    0.13422    0.10130    1.000
    C60      C        0.71944    0.13908    0.05814    1.000
    H61      H        0.72557    0.05073    0.05067    1.000
    H62      H        0.68152    0.09344    0.15902    1.000
    H63      H        0.72477    0.16533    0.03780    1.000
    X64      C        0.27850    0.38575    0.53407    1.000
    C65      C        0.28690    0.42385    0.55336    1.000
    X66      C        0.30337    0.43511    0.59671    1.000
    C67      C        0.31176    0.40750    0.62087    1.000
    X68      C        0.30321    0.36900    0.60261    1.000
    C69      C        0.28711    0.35885    0.55899    1.000
    H70      H        0.28102    0.44514    0.53433    1.000
    H71      H        0.32313    0.41514    0.65470    1.000
    H72      H        0.28037    0.32936    0.54469    1.000
    X73      C        0.10882    0.72520    0.53582    1.000
    C74      C        0.13849    0.71657    0.55473    1.000
    X75      C        0.13344    0.69959    0.59818    1.000
    C76      C        0.09701    0.69118    0.62211    1.000
    X77      C        0.06745    0.70050    0.60422    1.000
    C78      C        0.07375    0.71724    0.56101    1.000
    H79      H        0.16501    0.72228    0.53466    1.000
    H80      H        0.09266    0.67999    0.65601    1.000
    H81      H        0.05063    0.72328    0.54636    1.000
    X82      C        0.10981    0.38719    0.96530    1.000
    C83      C        0.07416    0.35998    0.94020    1.000
    X84      C        0.06844    0.36943    0.89634    1.000
    C85      C        0.09854    0.40714    0.87730    1.000
    X86      C        0.13477    0.43589    0.90071    1.000
    C87      C        0.13944    0.42533    0.94492    1.000
    H88      H        0.05161    0.32994    0.95343    1.000
    H89      H        0.09201    0.41456    0.84459    1.000
    H90      H        0.16652    0.44687    0.96355    1.000
    X91      C        0.88974    0.27615    0.46407    1.000
    C92      C        0.86007    0.28460    0.44434    1.000
    X93      C        0.86432    0.29924    0.39989    1.000
    C94      C        0.90033    0.30613    0.37616    1.000
    X95      C        0.93033    0.29815    0.39503    1.000
    C96      C        0.92472    0.28330    0.43900    1.000
    H97      H        0.83298    0.27824    0.46363    1.000
    H98      H        0.90679    0.31984    0.34335    1.000
    H99      H        0.94709    0.27597    0.45325    1.000
    X100     C        0.72490    0.61385    0.46501    1.000
    C101     C        0.71686    0.57573    0.44582    1.000
    X102     C        0.70246    0.56536    0.40149    1.000
    C103     C        0.69534    0.59373    0.37693    1.000
    X104     C        0.70277    0.63170    0.39539    1.000
    C105     C        0.71770    0.64140    0.43936    1.000
    H106     H        0.72322    0.55484    0.46499    1.000
    H107     H        0.68288    0.58586    0.34352    1.000
    H108     H        0.72362    0.67059    0.45383    1.000
    X109     C        0.89067    0.61560    0.03303    1.000
    C110     C        0.86173    0.57671    0.05202    1.000
    X111     C        0.86636    0.56587    0.09584    1.000
    C112     C        0.90133    0.59418    0.12082    1.000
    X113     C        0.93067    0.63318    0.10322    1.000
    C114     C        0.92483    0.64343    0.05960    1.000
    H115     H        0.83445    0.55501    0.03347    1.000
    H116     H        0.90483    0.58650    0.15472    1.000
    H117     H        0.94857    0.67258    0.04566    1.000
    X118     C        0.61716    0.89153    0.53772    1.000
    C119     C        0.57899    0.86180    0.55756    1.000
    X120     C        0.56769    0.86691    0.60085    1.000
    C121     C        0.59512    0.90264    0.62509    1.000
    X122     C        0.63307    0.93313    0.60660    1.000
    C123     C        0.64352    0.92754    0.56291    1.000
    H124     H        0.55653    0.83515    0.53876    1.000
    H125     H        0.58694    0.90674    0.65856    1.000
    H126     H        0.67355    0.95043    0.54997    1.000
    X127     C        0.27775    0.88950    0.96788    1.000
    C128     C        0.28695    0.86036    0.94828    1.000
    X129     C        0.30227    0.86534    0.90394    1.000
    C130     C        0.30982    0.90196    0.88081    1.000
    X131     C        0.30083    0.93130    0.89970    1.000
    C132     C        0.28481    0.92457    0.94316    1.000
    H133     H        0.27959    0.83272    0.96711    1.000
    H134     H        0.32326    0.90851    0.84790    1.000
    H135     H        0.27859    0.94735    0.95837    1.000
    X136     C        0.60872    0.71765    0.96995    1.000
    C137     C        0.57098    0.70944    0.94897    1.000
    X138     C        0.56094    0.69376    0.90514    1.000
    C139     C        0.58930    0.68578    0.88194    1.000
    X140     C        0.62713    0.69380    0.90129    1.000
    C141     C        0.63602    0.70898    0.94531    1.000
    H142     H        0.54873    0.71475    0.96663    1.000
    H143     H        0.58232    0.67400    0.84823    1.000
    H144     H        0.66553    0.71573    0.95934    1.000
    Zn145    Zn       0.71483    0.33761    0.22623    1.000
    Zn146    Zn       0.66675    0.33261    0.30988    1.000
    Zn147    Zn       0.66151    0.37613    0.22662    1.000
    Zn148    Zn       0.62292    0.28397    0.22728    1.000
    O149     O        0.66649    0.33262    0.24785    1.000
    O150     O        0.74581    0.33488    0.27008    1.000
    O151     O        0.67271    0.38168    0.33230    1.000
    O152     O        0.70412    0.41078    0.19075    1.000
    O153     O        0.71026    0.32705    0.33194    1.000
    O154     O        0.74678    0.38565    0.19575    1.000
    O155     O        0.66506    0.41015    0.27078    1.000
    O156     O        0.58805    0.29184    0.19197    1.000
    O157     O        0.61795    0.28930    0.33299    1.000
    O158     O        0.61300    0.35970    0.19666    1.000
    O159     O        0.58951    0.25330    0.27164    1.000
    O160     O        0.63898    0.25176    0.19726    1.000
    O161     O        0.70670    0.29480    0.19084    1.000
    X162     C        0.74130    0.32844    0.31177    1.000
    X163     C        0.67180    0.41170    0.31242    1.000
    X164     C        0.73899    0.41356    0.18218    1.000
    X165     C        0.58509    0.32383    0.18340    1.000
    X166     C        0.58807    0.25804    0.31336    1.000
    X167     C        0.67461    0.25968    0.18328    1.000
    Zn168    Zn       0.37642    0.66206    0.72759    1.000
    Zn169    Zn       0.28445    0.62310    0.72664    1.000
    Zn170    Zn       0.33224    0.66643    0.81034    1.000
    Zn171    Zn       0.33729    0.71514    0.72707    1.000
    O172     O        0.33259    0.66672    0.74827    1.000
    O173     O        0.36089    0.61435    0.69685    1.000
    O174     O        0.25348    0.58943    0.77045    1.000
    O175     O        0.38064    0.67101    0.83328    1.000
    O176     O        0.29302    0.58853    0.69138    1.000
    O177     O        0.40970    0.66441    0.77179    1.000
    O178     O        0.28847    0.61765    0.83245    1.000
    O179     O        0.33467    0.74594    0.77143    1.000
    O180     O        0.25222    0.63897    0.69629    1.000
    O181     O        0.32727    0.71015    0.83300    1.000
    O182     O        0.29435    0.70699    0.69154    1.000
    O183     O        0.38551    0.74729    0.69684    1.000
    O184     O        0.41129    0.70509    0.69291    1.000
    X185     C        0.32541    0.58618    0.68313    1.000
    X186     C        0.25766    0.58781    0.81223    1.000
    X187     C        0.41065    0.66992    0.81359    1.000
    X188     C        0.32872    0.74139    0.81321    1.000
    X189     C        0.25966    0.67464    0.68302    1.000
    X190     C        0.41384    0.73978    0.68407    1.000
    Zn191    Zn       0.16462    0.36778    0.29307    1.000
    Zn192    Zn       0.18630    0.30171    0.27310    1.000
    Zn193    Zn       0.11390    0.30253    0.22626    1.000
    Zn194    Zn       0.20250    0.36834    0.20765    1.000
    O195     O        0.16650    0.33448    0.24996    1.000
    O196     O        0.18872    0.36497    0.34300    1.000
    O197     O        0.14656    0.24693    0.27080    1.000
    O198     O        0.07417    0.30589    0.25937    1.000
    O199     O        0.20484    0.31595    0.33094    1.000
    O200     O        0.11278    0.35337    0.30921    1.000
    O201     O        0.09785    0.24732    0.22827    1.000
    O202     O        0.17612    0.36607    0.15751    1.000
    O203     O        0.22922    0.30474    0.24032    1.000
    O204     O        0.11055    0.31769    0.16821    1.000
    O205     O        0.24018    0.35388    0.19178    1.000
    O206     O        0.22979    0.42279    0.22259    1.000
    O207     O        0.19121    0.42216    0.27867    1.000
    X208     C        0.20439    0.34338    0.35632    1.000
    X209     C        0.11221    0.22741    0.24961    1.000
    X210     C        0.07728    0.32692    0.29421    1.000
    X211     C        0.13905    0.34526    0.14339    1.000
    X212     C        0.24824    0.32655    0.20633    1.000
    X213     C        0.22014    0.44218    0.25068    1.000
    Zn214    Zn       0.29954    0.15957    0.70353    1.000
    Zn215    Zn       0.36520    0.14332    0.74022    1.000
    Zn216    Zn       0.36438    0.22127    0.76542    1.000
    Zn217    Zn       0.29800    0.13863    0.79976    1.000
    O218     O        0.33178    0.16567    0.75224    1.000
    O219     O        0.31500    0.14165    0.65446    1.000
    O220     O        0.41960    0.18042    0.74929    1.000
    O221     O        0.35136    0.25467    0.73242    1.000
    O222     O        0.36381    0.13040    0.68193    1.000
    O223     O        0.30423    0.20805    0.68713    1.000
    O224     O        0.41897    0.23938    0.75770    1.000
    O225     O        0.31154    0.17119    0.84939    1.000
    O226     O        0.35163    0.09666    0.77324    1.000
    O227     O        0.36133    0.23163    0.82358    1.000
    O228     O        0.30243    0.09463    0.81640    1.000
    O229     O        0.24309    0.11684    0.78710    1.000
    O230     O        0.24417    0.12640    0.71410    1.000
    X231     C        0.34331    0.13216    0.64887    1.000
    X232     C        0.43880    0.21981    0.75365    1.000
    X233     C        0.32545    0.24537    0.70058    1.000
    X234     C        0.33973    0.20887    0.85583    1.000
    X235     C        0.32459    0.07921    0.80399    1.000
    X236     C        0.22411    0.11198    0.75030    1.000
    Zn237    Zn       0.13914    0.84166    0.20307    1.000
    Zn238    Zn       0.14213    0.77941    0.26397    1.000
    Zn239    Zn       0.22097    0.85749    0.23964    1.000
    Zn240    Zn       0.15876    0.86194    0.29943    1.000
    O241     O        0.16524    0.83515    0.25154    1.000
    O242     O        0.09469    0.79347    0.18674    1.000
    O243     O        0.17864    0.76126    0.25554    1.000
    O244     O        0.23240    0.87014    0.18138    1.000
    O245     O        0.09531    0.74639    0.23119    1.000
    O246     O        0.17245    0.85923    0.15389    1.000
    O247     O        0.23827    0.82050    0.24898    1.000
    O248     O        0.20722    0.90596    0.31619    1.000
    O249     O        0.12887    0.76864    0.32210    1.000
    O250     O        0.25419    0.90420    0.27252    1.000
    O251     O        0.14012    0.82896    0.34878    1.000
    O252     O        0.12554    0.88380    0.28730    1.000
    O253     O        0.11774    0.87545    0.21408    1.000
    X254     C        0.07841    0.75604    0.19992    1.000
    X255     C        0.21813    0.78104    0.25239    1.000
    X256     C        0.21016    0.86838    0.14830    1.000
    X257     C        0.24474    0.92150    0.30354    1.000
    X258     C        0.13040    0.79115    0.35479    1.000
    X259     C        0.11188    0.88939    0.25053    1.000
    Zn260    Zn       0.63026    0.83331    0.21057    1.000
    Zn261    Zn       0.69629    0.81098    0.22856    1.000
    Zn262    Zn       0.69703    0.88409    0.27565    1.000
    Zn263    Zn       0.63116    0.79603    0.29569    1.000
    O264     O        0.66433    0.83139    0.25264    1.000
    O265     O        0.63113    0.80793    0.16081    1.000
    O266     O        0.75140    0.85070    0.22929    1.000
    O267     O        0.69346    0.92377    0.24285    1.000
    O268     O        0.68020    0.79162    0.17102    1.000
    O269     O        0.64505    0.88513    0.19384    1.000
    O270     O        0.75187    0.89957    0.27231    1.000
    O271     O        0.63479    0.82306    0.34579    1.000
    O272     O        0.69356    0.76815    0.26164    1.000
    O273     O        0.68347    0.88831    0.33398    1.000
    O274     O        0.64547    0.75821    0.31118    1.000
    O275     O        0.57643    0.76883    0.28192    1.000
    O276     O        0.57632    0.80780    0.22667    1.000
    X277     C        0.65191    0.79164    0.14667    1.000
    X278     C        0.77135    0.88515    0.25033    1.000
    X279     C        0.67195    0.92063    0.20843    1.000
    X280     C        0.65631    0.86023    0.35946    1.000
    X281     C        0.67223    0.74958    0.29611    1.000
    X282     C        0.55666    0.77881    0.25468    1.000
    Zn283    Zn       0.79713    0.16771    0.70852    1.000
    Zn284    Zn       0.81228    0.11626    0.77419    1.000
    Zn285    Zn       0.88523    0.18996    0.72816    1.000
    Zn286    Zn       0.83388    0.20383    0.79535    1.000
    O287     O        0.83240    0.16921    0.75154    1.000
    O288     O        0.75877    0.11588    0.69306    1.000
    O289     O        0.85149    0.10061    0.77063    1.000
    O290     O        0.88908    0.20809    0.66992    1.000
    O291     O        0.76880    0.07695    0.74147    1.000
    O292     O        0.82362    0.19077    0.65810    1.000
    O293     O        0.90137    0.15091    0.73034    1.000
    O294     O        0.88571    0.24239    0.81048    1.000
    O295     O        0.79493    0.11158    0.83271    1.000
    O296     O        0.92462    0.23325    0.76122    1.000
    O297     O        0.81167    0.17671    0.84575    1.000
    O298     O        0.80506    0.22981    0.78261    1.000
    O299     O        0.77083    0.19590    0.72249    1.000
    X300     C        0.75006    0.08029    0.70751    1.000
    X301     C        0.88629    0.11590    0.75028    1.000
    X302     C        0.86077    0.20664    0.64441    1.000
    X303     C        0.92130    0.25153    0.79563    1.000
    X304     C        0.79642    0.13945    0.85890    1.000
    X305     C        0.77802    0.22259    0.75275    1.000
    Zn306    Zn       0.85876    0.70071    0.70289    1.000
    Zn307    Zn       0.77648    0.63469    0.73812    1.000
    Zn308    Zn       0.85480    0.63451    0.76321    1.000
    Zn309    Zn       0.83864    0.70055    0.79912    1.000
    O310     O        0.83215    0.66759    0.75087    1.000
    O311     O        0.82606    0.68587    0.65335    1.000
    O312     O        0.75874    0.58018    0.74633    1.000
    O313     O        0.90151    0.64804    0.73036    1.000
    O314     O        0.76554    0.63702    0.67983    1.000
    O315     O        0.90316    0.69679    0.68679    1.000
    O316     O        0.81789    0.57996    0.75492    1.000
    O317     O        0.85781    0.68643    0.84818    1.000
    O318     O        0.74323    0.64769    0.77155    1.000
    O319     O        0.86820    0.63681    0.82128    1.000
    O320     O        0.79002    0.69553    0.81618    1.000
    O321     O        0.87155    0.75571    0.78748    1.000
    O322     O        0.87995    0.75577    0.71444    1.000
    X323     C        0.78827    0.65782    0.64716    1.000
    X324     C        0.77849    0.56056    0.75071    1.000
    X325     C        0.91892    0.67505    0.69960    1.000
    X326     C        0.86728    0.65815    0.85393    1.000
    X327     C        0.75254    0.67373    0.80329    1.000
    X328     C        0.88545    0.77536    0.75097    1.000
    C329     C        0.08296    0.34797    0.03676    1.000
    X330     C        0.11632    0.37603    0.00920    1.000
    C331     C        0.15679    0.39222    0.02663    1.000
    C332     C        0.16379    0.38169    0.06919    1.000
    X333     C        0.13043    0.35437    0.09697    1.000
    C334     C        0.08982    0.33746    0.07984    1.000
    H335     H        0.05104    0.33518    0.02618    1.000
    H336     H        0.18397    0.41192    0.00687    1.000
    H337     H        0.12211    0.43788    0.09113    1.000
    H338     H        0.02318    0.25047    0.18482    1.000
    F339     F        0.05646    0.31134    0.10492    1.000
    F340     F        0.20391    0.39828    0.08263    1.000
    C341     C        0.27069    0.35224    0.45811    1.000
    X342     C        0.25901    0.37332    0.48878    1.000
    C343     C        0.22785    0.38214    0.47612    1.000
    C344     C        0.20961    0.37141    0.43390    1.000
    X345     C        0.22197    0.35127    0.40253    1.000
    C346     C        0.25244    0.34129    0.41552    1.000
    H347     H        0.29472    0.34504    0.46668    1.000
    H348     H        0.21715    0.39718    0.49920    1.000
    H349     H        0.26501    0.47663    0.45705    1.000
    H350     H        0.30590    0.44247    0.40997    1.000
    F351     F        0.26569    0.32226    0.38666    1.000
    F352     F        0.17945    0.38066    0.42408    1.000
    C353     C        0.32880    0.23033    0.97821    1.000
    X354     C        0.37066    0.25659    0.99143    1.000
    C355     C        0.40155    0.26740    0.95848    1.000
    C356     C        0.39125    0.25300    0.91457    1.000
    X357     C        0.34960    0.22619    0.90199    1.000
    C358     C        0.31850    0.21483    0.93450    1.000
    H359     H        0.30371    0.21987    0.00205    1.000
    H360     H        0.43400    0.28846    0.96584    1.000
    H361     H        0.36830    0.16854    0.97012    1.000
    H362     H        0.23665    0.09511    0.88314    1.000
    F363     F        0.27798    0.18886    0.92402    1.000
    F364     F        0.42249    0.26444    0.88461    1.000
    C365     C        0.33710    0.10939    0.52389    1.000
    X366     C        0.37722    0.11627    0.51438    1.000
    C367     C        0.40572    0.12767    0.54963    1.000
    C368     C        0.39444    0.13175    0.59323    1.000
    X369     C        0.35422    0.12505    0.60281    1.000
    C370     C        0.32578    0.11398    0.56727    1.000
    H371     H        0.31445    0.10086    0.49744    1.000
    H372     H        0.43673    0.13294    0.54353    1.000
    H373     H        0.40924    0.21022    0.50780    1.000
    H374     H        0.33378    0.21161    0.59365    1.000
    F375     F        0.28677    0.10719    0.57439    1.000
    F376     F        0.42350    0.14339    0.62579    1.000
    C377     C        0.77756    0.15523    0.98028    1.000
    X378     C        0.74641    0.11547    0.99359    1.000
    C379     C        0.73348    0.08254    0.96287    1.000
    C380     C        0.75028    0.08955    0.91953    1.000
    X381     C        0.78057    0.12986    0.90585    1.000
    C382     C        0.79441    0.16243    0.93737    1.000
    H383     H        0.78917    0.18108    0.00332    1.000
    H384     H        0.70943    0.05147    0.97194    1.000
    H385     H        0.73007    0.12688    0.78715    1.000
    H386     H        0.69648    0.14168    0.92881    1.000
    F387     F        0.82459    0.20168    0.92694    1.000
    F388     F        0.73571    0.05719    0.89062    1.000
    C389     C        0.27699    0.87207    0.04941    1.000
    X390     C        0.26009    0.88351    0.01401    1.000
    C391     C        0.22695    0.89061    0.02327    1.000
    C392     C        0.21096    0.88622    0.06659    1.000
    X393     C        0.22817    0.87516    0.10228    1.000
    C394     C        0.26158    0.86821    0.09293    1.000
    H395     H        0.30268    0.86667    0.04349    1.000
    H396     H        0.21302    0.89922    0.99669    1.000
    H397     H        0.11752    0.79039    0.09272    1.000
    H398     H        0.16292    0.77299    0.16049    1.000
    F399     F        0.27888    0.85663    0.12567    1.000
    F400     F        0.17886    0.89324    0.07349    1.000
    C401     C        0.12539    0.72476    0.45441    1.000
    X402     C        0.11394    0.74202    0.48943    1.000
    C403     C        0.10667    0.77494    0.47962    1.000
    C404     C        0.11137    0.79066    0.43611    1.000
    X405     C        0.12283    0.77330    0.40089    1.000
    C406     C        0.12955    0.73987    0.41078    1.000
    H407     H        0.13080    0.69914    0.46074    1.000
    H408     H        0.09793    0.78902    0.50592    1.000
    H409     H        0.20820    0.81834    0.45695    1.000
    H410     H        0.22584    0.83279    0.34455    1.000
    F411     F        0.14147    0.72240    0.37853    1.000
    F412     F        0.10444    0.82274    0.42857    1.000
    C413     C        0.91655    0.27018    0.54024    1.000
    X414     C        0.88325    0.25803    0.51014    1.000
    C415     C        0.84340    0.22763    0.52411    1.000
    C416     C        0.83659    0.21054    0.56692    1.000
    X417     C        0.86968    0.22326    0.59766    1.000
    C418     C        0.90996    0.25307    0.58340    1.000
    H419     H        0.94771    0.29365    0.53071    1.000
    H420     H        0.81721    0.21652    0.50160    1.000
    H421     H        0.85254    0.31530    0.54935    1.000
    H422     H        0.83553    0.11099    0.66404    1.000
    F423     F        0.94283    0.26668    0.61150    1.000
    F424     F        0.79722    0.18106    0.57789    1.000
    C425     C        0.72359    0.59631    0.54653    1.000
    X426     C        0.74095    0.62531    0.51174    1.000
    C427     C        0.77330    0.66565    0.52211    1.000
    C428     C        0.78833    0.67659    0.56587    1.000
    X429     C        0.77085    0.64752    0.60085    1.000
    C430     C        0.73801    0.60719    0.59045    1.000
    H431     H        0.69844    0.56512    0.53978    1.000
    H432     H        0.78754    0.68870    0.49605    1.000
    H433     H        0.81810    0.60890    0.54673    1.000
    H434     H        0.78974    0.72347    0.71364    1.000
    F435     F        0.72052    0.57760    0.62250    1.000
    F436     F        0.81987    0.71577    0.57387    1.000
    C437     C        0.90096    0.66840    0.97573    1.000
    X438     C        0.88567    0.62648    0.98857    1.000
    C439     C        0.86520    0.59574    0.95557    1.000
    C440     C        0.86051    0.60626    0.91194    1.000
    X441     C        0.87515    0.64797    0.89976    1.000
    C442     C        0.89523    0.67890    0.93234    1.000
    H443     H        0.91577    0.69338    0.99966    1.000
    H444     H        0.85393    0.56326    0.96265    1.000
    H445     H        0.79868    0.62849    0.96607    1.000
    H446     H        0.93361    0.72805    0.78554    1.000
    F447     F        0.90961    0.71947    0.92223    1.000
    F448     F        0.84037    0.57518    0.88188    1.000
    C449     C        0.60323    0.75972    0.03087    1.000
    X450     C        0.61963    0.73550    0.01378    1.000
    C451     C        0.64790    0.73069    0.04152    1.000
    C452     C        0.65884    0.74889    0.08415    1.000
    X453     C        0.64202    0.77282    0.10079    1.000
    C454     C        0.61414    0.77803    0.07307    1.000
    H455     H        0.58316    0.76663    0.01104    1.000
    H456     H        0.66069    0.71144    0.03143    1.000
    H457     H        0.70055    0.82729    0.01322    1.000
    H458     H        0.72385    0.88854    0.15934    1.000
    F459     F        0.59747    0.80157    0.08616    1.000
    F460     F        0.68533    0.74226    0.10929    1.000
    C461     C        0.65648    0.91774    0.46620    1.000
    X462     C        0.62854    0.88473    0.49412    1.000
    C463     C        0.61211    0.84404    0.47721    1.000
    C464     C        0.62178    0.83650    0.43453    1.000
    X465     C        0.64853    0.86949    0.40612    1.000
    C466     C        0.66614    0.91033    0.42291    1.000
    H467     H        0.66969    0.94976    0.47660    1.000
    H468     H        0.59265    0.81711    0.49743    1.000
    H469     H        0.69248    0.81170    0.42125    1.000
    H470     H        0.54681    0.80582    0.35461    1.000
    F471     F        0.69199    0.94335    0.39727    1.000
    F472     F        0.60482    0.79620    0.42157    1.000
    C473     C        0.30001    0.55553    0.22514    1.000
    X474     C        0.28600    0.57735    0.25149    1.000
    C475     C        0.25005    0.55441    0.27734    1.000
    C476     C        0.22875    0.51082    0.27721    1.000
    X477     C        0.24280    0.48876    0.25083    1.000
    C478     C        0.27879    0.51193    0.22462    1.000
    H479     H        0.32734    0.57229    0.20443    1.000
    H480     H        0.23870    0.57029    0.29835    1.000
    H481     H        0.24673    0.45477    0.36028    1.000
    H482     H        0.19076    0.45316    0.15213    1.000
    F483     F        0.29392    0.49264    0.19860    1.000
    F484     F        0.19425    0.49044    0.30294    1.000
    C485     C        0.24651    0.69704    0.27438    1.000
    X486     C        0.28541    0.71323    0.25322    1.000
    C487     C        0.30180    0.75200    0.23175    1.000
    C488     C        0.28028    0.77409    0.23171    1.000
    X489     C        0.24121    0.75768    0.25266    1.000
    C490     C        0.22455    0.71871    0.27390    1.000
    H491     H        0.23318    0.66776    0.29207    1.000
    H492     H        0.33116    0.76517    0.21424    1.000
    H493     H        0.30810    0.77885    0.12456    1.000
    H494     H        0.22943    0.76688    0.14351    1.000
    F495     F        0.18744    0.70191    0.29533    1.000
    F496     F        0.29738    0.81113    0.21010    1.000
    C497     C        0.44416    0.74918    0.23008    1.000
    X498     C        0.42148    0.71312    0.25583    1.000
    C499     C        0.44358    0.69908    0.28168    1.000
    C500     C        0.48719    0.72031    0.28167    1.000
    X501     C        0.51009    0.75636    0.25546    1.000
    C502     C        0.48774    0.77053    0.22975    1.000
    H503     H        0.42809    0.76057    0.20942    1.000
    H504     H        0.42705    0.67167    0.30232    1.000
    H505     H        0.42696    0.65773    0.18246    1.000
    H506     H        0.56914    0.84779    0.13809    1.000
    F507     F        0.50783    0.80517    0.20417    1.000
    F508     F        0.50676    0.70509    0.30711    1.000
    C509     C        0.55163    0.25071    0.73091    1.000
    X510     C        0.57378    0.28878    0.75376    1.000
    C511     C        0.55089    0.30385    0.77660    1.000
    C512     C        0.50727    0.28172    0.77647    1.000
    X513     C        0.48519    0.24344    0.75385    1.000
    C514     C        0.50803    0.22818    0.73115    1.000
    H515     H        0.56801    0.23848    0.71210    1.000
    H516     H        0.56670    0.33256    0.79530    1.000
    H517     H        0.57476    0.34537    0.67706    1.000
    H518     H        0.39620    0.22753    0.66164    1.000
    F519     F        0.48828    0.19195    0.70805    1.000
    F520     F        0.48674    0.29741    0.79950    1.000
    C521     C        0.69670    0.25396    0.72714    1.000
    X522     C        0.71002    0.28964    0.75355    1.000
    C523     C        0.74582    0.30307    0.77979    1.000
    C524     C        0.76777    0.28142    0.77981    1.000
    X525     C        0.75455    0.24563    0.75315    1.000
    C526     C        0.71858    0.23226    0.72675    1.000
    H527     H        0.66947    0.24307    0.70620    1.000
    H528     H        0.75666    0.33025    0.80081    1.000
    H529     H        0.77143    0.34471    0.68054    1.000
    H530     H        0.73940    0.18973    0.85338    1.000
    F531     F        0.70410    0.19791    0.70070    1.000
    F532     F        0.80224    0.29598    0.80566    1.000
    C533     C        0.69483    0.44804    0.72903    1.000
    X534     C        0.71009    0.42556    0.75235    1.000
    C535     C        0.74820    0.44813    0.77503    1.000
    C536     C        0.77055    0.49172    0.77422    1.000
    X537     C        0.75506    0.51416    0.75109    1.000
    C538     C        0.71677    0.49167    0.72859    1.000
    H539     H        0.66612    0.43191    0.71036    1.000
    H540     H        0.76062    0.43208    0.79413    1.000
    H541     H        0.76518    0.42506    0.67518    1.000
    H542     H        0.83000    0.60436    0.65918    1.000
    F543     F        0.70090    0.51179    0.70511    1.000
    F544     F        0.80684    0.51189    0.79717    1.000
    C545     C        0.48608    0.27617    0.11279    1.000
    X546     C        0.47178    0.30449    0.11873    1.000
    C547     C        0.49621    0.34034    0.14438    1.000
    C548     C        0.53360    0.34747    0.16405    1.000
    X549     C        0.54743    0.31851    0.15903    1.000
    C550     C        0.52313    0.28284    0.13275    1.000
    H551     H        0.46794    0.24811    0.09353    1.000
    H552     H        0.48633    0.36299    0.14927    1.000
    H553     H        0.50949    0.27323    0.25133    1.000
    H554     H        0.58023    0.33683    0.28927    1.000
    F555     F        0.53503    0.25410    0.12633    1.000
    F556     F        0.55536    0.38207    0.18933    1.000
    C557     C        0.47794    0.16837    0.33572    1.000
    X558     C        0.47499    0.16540    0.38263    1.000
    C559     C        0.51063    0.19461    0.40673    1.000
    C560     C        0.54729    0.22450    0.38495    1.000
    X561     C        0.54979    0.22642    0.33807    1.000
    C562     C        0.51417    0.19777    0.31401    1.000
    H563     H        0.45159    0.14927    0.31469    1.000
    H564     H        0.51123    0.19388    0.44265    1.000
    H565     H        0.44387    0.22722    0.41099    1.000
    H566     H        0.66315    0.24170    0.28896    1.000
    F567     F        0.51346    0.19851    0.26885    1.000
    F568     F        0.58044    0.25108    0.41000    1.000
    C569     C        0.71751    0.20736    0.10752    1.000
    X570     C        0.69398    0.16500    0.12000    1.000
    C571     C        0.66240    0.15449    0.15215    1.000
    C572     C        0.65497    0.18476    0.17116    1.000
    X573     C        0.67950    0.22698    0.15950    1.000
    C574     C        0.71081    0.23782    0.12728    1.000
    H575     H        0.74290    0.21784    0.08408    1.000
    H576     H        0.64220    0.12252    0.16204    1.000
    H577     H        0.62782    0.18085    0.06562    1.000
    H578     H        0.72485    0.23231    0.25091    1.000
    F579     F        0.73527    0.27810    0.11487    1.000
    F580     F        0.62461    0.17272    0.20231    1.000
    C581     C        0.28043    0.48756    0.61211    1.000
    X582     C        0.31010    0.47486    0.61730    1.000
    C583     C        0.34575    0.50009    0.64284    1.000
    C584     C        0.35147    0.53679    0.66297    1.000
    X585     C        0.32123    0.54907    0.65858    1.000
    C586     C        0.28569    0.52390    0.63253    1.000
    H587     H        0.25245    0.46874    0.59297    1.000
    H588     H        0.36939    0.49144    0.64718    1.000
    H589     H        0.35759    0.55774    0.55545    1.000
    H590     H        0.39128    0.63741    0.60531    1.000
    F591     F        0.25577    0.53429    0.62669    1.000
    F592     F        0.38608    0.55946    0.68796    1.000
    C593     C        0.82977    0.30599    0.33229    1.000
    X594     C        0.83346    0.30640    0.37911    1.000
    C595     C        0.80516    0.31375    0.40380    1.000
    C596     C        0.77542    0.32105    0.38261    1.000
    X597     C        0.77280    0.32128    0.33580    1.000
    C598     C        0.80051    0.31336    0.31116    1.000
    H599     H        0.84823    0.29809    0.31098    1.000
    H600     H        0.80658    0.31551    0.43969    1.000
    H601     H        0.77153    0.21380    0.41119    1.000
    H602     H        0.75761    0.42114    0.28691    1.000
    F603     F        0.79893    0.31146    0.26602    1.000
    F604     F        0.74974    0.32854    0.40815    1.000
    C605     C        0.70403    0.52510    0.33451    1.000
    X606     C        0.69556    0.52565    0.38003    1.000
    C607     C        0.68019    0.48806    0.40398    1.000
    C608     C        0.67277    0.45101    0.38274    1.000
    X609     C        0.68020    0.45052    0.33675    1.000
    C610     C        0.69634    0.48841    0.31317    1.000
    H611     H        0.71714    0.55341    0.31507    1.000
    H612     H        0.67303    0.48705    0.43903    1.000
    H613     H        0.61045    0.50390    0.33761    1.000
    H614     H        0.59688    0.42997    0.28199    1.000
    F615     F        0.70570    0.49049    0.26922    1.000
    F616     F        0.65728    0.41551    0.40701    1.000
    C617     C        0.84477    0.50096    0.14183    1.000
    X618     C        0.83376    0.52566    0.11613    1.000
    C619     C        0.79122    0.51212    0.11078    1.000
    C620     C        0.76055    0.47552    0.13126    1.000
    X621     C        0.77153    0.45089    0.15748    1.000
    C622     C        0.81423    0.46400    0.16197    1.000
    H623     H        0.87723    0.51031    0.14637    1.000
    H624     H        0.78159    0.53052    0.09156    1.000
    H625     H        0.78565    0.49910    0.24624    1.000
    H626     H        0.77309    0.37346    0.10625    1.000
    F627     F        0.82675    0.44192    0.18716    1.000
    F628     F        0.72004    0.46437    0.12536    1.000
    C629     C        0.20685    0.71582    0.60540    1.000
    X630     C        0.16442    0.69205    0.61761    1.000
    C631     C        0.15409    0.66104    0.65042    1.000
    C632     C        0.18457    0.65433    0.67021    1.000
    X633     C        0.22684    0.67910    0.65879    1.000
    C634     C        0.23751    0.70990    0.62601    1.000
    H635     H        0.21722    0.74083    0.58150    1.000
    H636     H        0.12211    0.64076    0.66024    1.000
    H637     H        0.18206    0.62575    0.56561    1.000
    H638     H        0.33344    0.66709    0.63626    1.000
    F639     F        0.27782    0.73456    0.61380    1.000
    F640     F        0.17267    0.62439    0.70183    1.000
    C641     C        0.16930    0.47692    0.83304    1.000
    X642     C        0.16552    0.47389    0.87985    1.000
    C643     C        0.19358    0.50973    0.90442    1.000
    C644     C        0.22326    0.54670    0.88312    1.000
    X645     C        0.22610    0.54927    0.83632    1.000
    C646     C        0.19858    0.51346    0.81179    1.000
    H647     H        0.15093    0.45039    0.81189    1.000
    H648     H        0.19197    0.51033    0.94029    1.000
    H649     H        0.25773    0.48344    0.86001    1.000
    H650     H        0.33467    0.57772    0.78787    1.000
    F651     F        0.20045    0.51287    0.76668    1.000
    F652     F        0.24872    0.58007    0.90854    1.000
    C653     C        0.50205    0.84553    0.64530    1.000
    X654     C        0.52733    0.83446    0.62077    1.000
    C655     C        0.51386    0.79195    0.61550    1.000
    C656     C        0.47670    0.76132    0.63492    1.000
    X657     C        0.45152    0.77234    0.66008    1.000
    C658     C        0.46456    0.81501    0.66450    1.000
    H659     H        0.51127    0.87798    0.64955    1.000
    H660     H        0.53265    0.78231    0.59701    1.000
    H661     H        0.47061    0.81648    0.53880    1.000
    H662     H        0.45195    0.65086    0.69086    1.000
    F663     F        0.44188    0.82748    0.68870    1.000
    F664     F        0.46556    0.72081    0.62904    1.000
    C665     C        0.30880    0.83139    0.83560    1.000
    X666     C        0.30892    0.83437    0.88250    1.000
    C667     C        0.31526    0.80511    0.90659    1.000
    C668     C        0.32188    0.77515    0.88478    1.000
    X669     C        0.32232    0.77316    0.83790    1.000
    C670     C        0.31540    0.80185    0.81386    1.000
    H671     H        0.30162    0.85060    0.81463    1.000
    H672     H        0.31669    0.80590    0.94251    1.000
    H673     H        0.40540    0.86513    0.85918    1.000
    H674     H        0.24221    0.66485    0.78729    1.000
    F675     F        0.31372    0.80099    0.76870    1.000
    F676     F        0.32843    0.74855    0.90982    1.000
    C677     C        0.48405    0.67313    0.90590    1.000
    X678     C        0.52188    0.68756    0.88264    1.000
    C679     C        0.52245    0.69681    0.83720    1.000
    C680     C        0.48667    0.69121    0.81539    1.000
    X681     C        0.44858    0.67627    0.83837    1.000
    C682     C        0.44792    0.66770    0.88419    1.000
    H683     H        0.48213    0.66533    0.94085    1.000
    H684     H        0.55103    0.70922    0.81831    1.000
    H685     H        0.42102    0.75641    0.78828    1.000
    H686     H        0.42876    0.59637    0.77532    1.000
    F687     F        0.41219    0.65313    0.90787    1.000
    F688     F        0.48989    0.70154    0.77164    1.000
    C689     C        0.08201    0.97245    0.27207    1.000
    X690     C        0.04351    0.95669    0.24961    1.000
    C691     C        0.02821    0.91810    0.22747    1.000
    C692     C        0.05066    0.89681    0.22702    1.000
    X693     C        0.08852    0.91250    0.25015    1.000
    C694     C        0.10372    0.95041    0.27303    1.000
    H695     H        0.09486    0.00116    0.29077    1.000
    H696     H        0.99957    0.90488    0.20861    1.000
    H697     H        0.10969    0.98260    0.16941    1.000
    H698     H        0.20742    0.93574    0.21641    1.000
    F699     F        0.14013    0.96665    0.29576    1.000
    F700     F        0.03486    0.86029    0.20456    1.000
    C701     C        0.02576    0.11394    0.23273    1.000
    X702     C        0.04317    0.09067    0.25045    1.000
    C703     C        0.08389    0.11382    0.26809    1.000
    C704     C        0.10599    0.15756    0.26791    1.000
    X705     C        0.08845    0.18046    0.24988    1.000
    C706     C        0.04782    0.15772    0.23229    1.000
    H707     H        0.99545    0.09870    0.21719    1.000
    H708     H        0.09878    0.09851    0.28386    1.000
    H709     H        0.09252    0.08609    0.16875    1.000
    H710     H        0.18895    0.22151    0.19790    1.000
    F711     F        0.02899    0.17763    0.21437    1.000
    F712     F        0.14482    0.17729    0.28562    1.000
    C713     C        0.88486    0.91832    0.22226    1.000
    X714     C        0.90754    0.95495    0.24738    1.000
    C715     C        0.88491    0.96833    0.27338    1.000
    C716     C        0.84119    0.94603    0.27436    1.000
    X717     C        0.81830    0.90915    0.24924    1.000
    C718     C        0.84109    0.89575    0.22308    1.000
    H719     H        0.90104    0.90723    0.20136    1.000
    H720     H        0.90109    0.99592    0.29382    1.000
    H721     H        0.89604    0.01149    0.17960    1.000
    H722     H        0.81223    0.94325    0.15578    1.000
    F723     F        0.82125    0.86087    0.19783    1.000
    F724     F        0.82151    0.96069    0.30044    1.000
    C725     C        0.11193    0.08432    0.72775    1.000
    X726     C        0.08850    0.04540    0.74920    1.000
    C727     C        0.11107    0.02902    0.77087    1.000
    C728     C        0.15479    0.05080    0.77178    1.000
    X729     C        0.17766    0.08908    0.74965    1.000
    C730     C        0.15569    0.10539    0.72724    1.000
    H731     H        0.09663    0.09802    0.70951    1.000
    H732     H        0.09513    0.00005    0.78908    1.000
    H733     H        0.08303    0.98749    0.67101    1.000
    H734     H        0.24165    0.14563    0.61843    1.000
    F735     F        0.17660    0.14229    0.70552    1.000
    F736     F        0.17478    0.03398    0.79383    1.000
    C737     C        0.91756    0.03362    0.77459    1.000
    X738     C        0.95399    0.04743    0.74918    1.000
    C739     C        0.96793    0.08406    0.72408    1.000
    C740     C        0.94630    0.10621    0.72432    1.000
    X741     C        0.90967    0.09235    0.74984    1.000
    C742     C        0.89572    0.05551    0.77499    1.000
    H743     H        0.90613    0.00600    0.79498    1.000
    H744     H        0.99546    0.09546    0.70356    1.000
    H745     H        0.98534    0.11992    0.82440    1.000
    H746     H        0.80820    0.03104    0.70352    1.000
    F747     F        0.86104    0.04052    0.80056    1.000
    F748     F        0.96132    0.14110    0.69909    1.000
    C749     C        0.92115    0.88835    0.78196    1.000
    X750     C        0.95340    0.91078    0.75132    1.000
    C751     C        0.96301    0.88830    0.72052    1.000
    C752     C        0.94076    0.84457    0.71996    1.000
    X753     C        0.90870    0.82199    0.75101    1.000
    C754     C        0.89939    0.84459    0.78224    1.000
    H755     H        0.91314    0.90480    0.80618    1.000
    H756     H        0.98754    0.90470    0.69636    1.000
    H757     H        0.87184    0.87427    0.69085    1.000
    H758     H        0.95802    0.80827    0.82817    1.000
    F759     F        0.86865    0.82441    0.81261    1.000
    F760     F        0.95137    0.82440    0.68962    1.000
    C761     C        0.31665    0.32369    0.11314    1.000
    X762     C        0.33549    0.30302    0.13301    1.000
    C763     C        0.32640    0.29107    0.17790    1.000
    C764     C        0.29846    0.29880    0.20205    1.000
    X765     C        0.27937    0.31941    0.18196    1.000
    C766     C        0.28921    0.33196    0.13708    1.000
    H767     H        0.32339    0.33376    0.07881    1.000
    H768     H        0.34038    0.27500    0.19413    1.000
    H769     H        0.40574    0.38667    0.16921    1.000
    H770     H        0.16337    0.27466    0.15843    1.000
    F771     F        0.27147    0.35135    0.11560    1.000
    F772     F        0.29036    0.28624    0.24510    1.000
    C773     C        0.96441    0.29369    0.32372    1.000
    X774     C        0.96777    0.30565    0.36871    1.000
    C775     C        0.00730    0.32498    0.38849    1.000
    C776     C        0.04257    0.33228    0.36424    1.000
    X777     C        0.03936    0.32010    0.31913    1.000
    C778     C        0.99960    0.30051    0.29926    1.000
    H779     H        0.93430    0.27843    0.30757    1.000
    H780     H        0.01105    0.33489    0.42290    1.000
    H781     H        0.10885    0.27372    0.34194    1.000
    H782     H        0.02969    0.22257    0.30071    1.000
    F783     F        0.99464    0.28821    0.25609    1.000
    F784     F        0.07977    0.35056    0.38560    1.000
    C785     C        0.29571    0.01897    0.37633    1.000
    X786     C        0.33821    0.03172    0.37364    1.000
    C787     C        0.35009    0.00866    0.34619    1.000
    C788     C        0.32023    0.97337    0.32283    1.000
    X789     C        0.27744    0.96014    0.32634    1.000
    C790     C        0.26582    0.98393    0.35322    1.000
    H791     H        0.28543    0.03646    0.39622    1.000
    H792     H        0.38253    0.01736    0.34355    1.000
    H793     H        0.29922    0.94535    0.42938    1.000
    H794     H        0.14178    0.90697    0.38198    1.000
    F795     F        0.22538    0.97373    0.35711    1.000
    F796     F        0.33332    0.95171    0.29776    1.000
    C797     C        0.70505    0.03349    0.17925    1.000
    X798     C        0.69345    0.03022    0.13417    1.000
    C799     C        0.67420    0.99074    0.11428    1.000
    C800     C        0.66677    0.95542    0.13847    1.000
    X801     C        0.67873    0.95854    0.18363    1.000
    C802     C        0.69810    0.99823    0.20366    1.000
    H803     H        0.72030    0.06357    0.19544    1.000
    H804     H        0.66465    0.98711    0.07974    1.000
    H805     H        0.76714    0.00433    0.13068    1.000
    H806     H        0.78037    0.97683    0.21490    1.000
    F807     F        0.71015    0.00306    0.24691    1.000
    F808     F        0.64882    0.91829    0.11697    1.000
    C809     C        0.34368    0.35039    0.65717    1.000
    X810     C        0.30882    0.33816    0.62954    1.000
    C811     C        0.27892    0.29570    0.62741    1.000
    C812     C        0.28401    0.26606    0.65096    1.000
    X813     C        0.31951    0.27794    0.67775    1.000
    C814     C        0.34908    0.32073    0.68099    1.000
    H815     H        0.36735    0.38288    0.65951    1.000
    H816     H        0.25110    0.28523    0.60755    1.000
    H817     H        0.35513    0.29747    0.57458    1.000
    H818     H        0.35285    0.31637    0.92966    1.000
    F819     F        0.38381    0.33396    0.70611    1.000
    F820     F        0.25367    0.22561    0.64758    1.000
    C821     C        0.27736    0.98148    0.87631    1.000
    X822     C        0.30702    0.96861    0.87381    1.000
    C823     C        0.34216    0.99166    0.84662    1.000
    C824     C        0.34787    0.02709    0.82335    1.000
    X825     C        0.31842    0.04046    0.82669    1.000
    C826     C        0.28279    0.01664    0.85329    1.000
    H827     H        0.24943    0.96396    0.89595    1.000
    H828     H        0.36580    0.98281    0.84410    1.000
    H829     H        0.26655    0.91269    0.79087    1.000
    H830     H        0.27299    0.06540    0.71703    1.000
    F831     F        0.25259    0.02693    0.85696    1.000
    F832     F        0.38277    0.04873    0.79849    1.000
    C833     C        0.98051    0.70650    0.12797    1.000
    X834     C        0.96732    0.66388    0.13021    1.000
    C835     C        0.98995    0.65137    0.15750    1.000
    C836     C        0.02550    0.68080    0.18085    1.000
    X837     C        0.03936    0.72373    0.17749    1.000
    C838     C        0.01579    0.73595    0.15106    1.000
    H839     H        0.96331    0.71725    0.10827    1.000
    H840     H        0.98080    0.61879    0.15985    1.000
    H841     H        0.05373    0.70338    0.07417    1.000
    H842     H        0.09533    0.85672    0.11872    1.000
    F843     F        0.02651    0.77656    0.14750    1.000
    F844     F        0.04689    0.66720    0.20563    1.000
    C845     C        0.01751    0.72380    0.62882    1.000
    X846     C        0.03045    0.69417    0.63077    1.000
    C847     C        0.00740    0.65869    0.65746    1.000
    C848     C        0.97165    0.65245    0.68050    1.000
    X849     C        0.95806    0.68177    0.67742    1.000
    C850     C        0.98208    0.71788    0.65161    1.000
    H851     H        0.03508    0.75203    0.60964    1.000
    H852     H        0.01642    0.63516    0.65962    1.000
    H853     H        0.05003    0.73162    0.73077    1.000
    H854     H        0.90304    0.75980    0.61831    1.000
    F855     F        0.97169    0.74803    0.64843    1.000
    F856     F        0.94986    0.61718    0.70475    1.000
    C857     C        0.99127    0.32002    0.88970    1.000
    X858     C        0.03085    0.33974    0.87003    1.000
    C859     C        0.03419    0.33094    0.82511    1.000
    C860     C        0.99895    0.30274    0.80064    1.000
    X861     C        0.95915    0.28293    0.82041    1.000
    C862     C        0.95593    0.29222    0.86541    1.000
    H863     H        0.98757    0.32636    0.92406    1.000
    H864     H        0.06433    0.34544    0.80905    1.000
    H865     H        0.00639    0.24195    0.87566    1.000
    H866     H        0.89181    0.16626    0.84128    1.000
    F867     F        0.91868    0.27365    0.88667    1.000
    F868     F        0.00393    0.29512    0.75757    1.000
    C869     C        0.70648    0.67033    0.32430    1.000
    X870     C        0.69431    0.66105    0.36914    1.000
    C871     C        0.67406    0.68028    0.38908    1.000
    C872     C        0.66636    0.70820    0.36527    1.000
    X873     C        0.67908    0.71817    0.32043    1.000
    C874     C        0.69931    0.69872    0.30028    1.000
    H875     H        0.72231    0.65613    0.30800    1.000
    H876     H        0.66384    0.67348    0.42336    1.000
    H877     H        0.61118    0.59163    0.33069    1.000
    H878     H        0.72735    0.83521    0.33987    1.000
    F879     F        0.71200    0.70688    0.25727    1.000
    F880     F        0.64722    0.72615    0.38684    1.000
    C881     C        0.68152    0.01032    0.61358    1.000
    X882     C        0.66216    0.97071    0.63314    1.000
    C883     C        0.67104    0.96734    0.67800    1.000
    C884     C        0.69913    0.00262    0.70249    1.000
    X885     C        0.71866    0.04245    0.68279    1.000
    C886     C        0.70914    0.04570    0.63790    1.000
    H887     H        0.67509    0.01400    0.57924    1.000
    H888     H        0.65680    0.93715    0.69395    1.000
    H889     H        0.75949    0.99602    0.62453    1.000
    H890     H        0.81255    0.11235    0.58063    1.000
    F891     F        0.72739    0.08301    0.61676    1.000
    F892     F        0.70698    0.99764    0.74547    1.000
    C893     C        0.64689    0.65450    0.84618    1.000
    X894     C        0.65863    0.68855    0.87495    1.000
    C895     C        0.70113    0.71813    0.87839    1.000
    C896     C        0.73117    0.71357    0.85488    1.000
    X897     C        0.71969    0.67903    0.82664    1.000
    C898     C        0.67690    0.64971    0.82232    1.000
    H899     H        0.61443    0.63101    0.84281    1.000
    H900     H        0.71134    0.74539    0.89912    1.000
    H901     H        0.78895    0.77643    0.77064    1.000
    H902     H        0.77214    0.60367    0.84240    1.000
    F903     F        0.66395    0.61580    0.79589    1.000
    F904     F        0.77161    0.74353    0.85976    1.000
