# CIF file generated by openbabel 3.1.0, see https://openbabel.org
data_I
_chemical_name_common 'image0'
_cell_length_a 14.708
_cell_length_b 15.429
_cell_length_c 23.084
_cell_angle_alpha 84.282
_cell_angle_beta 82.619
_cell_angle_gamma 86.756
_space_group_name_H-M_alt 'P 1'
_space_group_name_Hall 'P 1'
loop_
    _symmetry_equiv_pos_as_xyz
    x,y,z
loop_
    _atom_site_label
    _atom_site_type_symbol
    _atom_site_fract_x
    _atom_site_fract_y
    _atom_site_fract_z
    _atom_site_occupancy
    C1       C        0.96440    0.03630    0.21000    1.000
    C2       C        0.04050    0.00050    0.16990    1.000
    C3       C        0.12910    0.02620    0.17110    1.000
    H1       H        0.13980    0.06440    0.19790    1.000
    C4       C        0.02680    0.94350    0.12940    1.000
    H2       H        0.96800    0.92550    0.12770    1.000
    C5       C        0.09900    0.91300    0.09140    1.000
    H3       H        0.08880    0.87420    0.06480    1.000
    C6       C        0.20170    0.99620    0.13310    1.000
    H4       H        0.26070    0.01380    0.13470    1.000
    C7       C        0.18640    0.94000    0.09280    1.000
    C8       C        0.25210    0.87540    0.00600    1.000
    C9       C        0.20670    0.92100    0.96340    1.000
    H5       H        0.18140    0.97660    0.96880    1.000
    C10      C        0.29190    0.79460    0.99830    1.000
    H6       H        0.32390    0.76480    0.02690    1.000
    C11      C        0.19900    0.88370    0.91290    1.000
    H7       H        0.16790    0.91430    0.88410    1.000
    C12      C        0.28350    0.75830    0.94720    1.000
    H8       H        0.31030    0.70320    0.94180    1.000
    C13      C        0.23700    0.80070    0.90410    1.000
    C14      C        0.22580    0.76050    0.84890    1.000
    C15      C        0.78240    0.92160    0.35930    1.000
    C16      C        0.75210    0.93450    0.42210    1.000
    C17      C        0.67610    0.98940    0.43610    1.000
    H9       H        0.64550    0.01820    0.40640    1.000
    C18      C        0.79660    0.89190    0.46590    1.000
    H10      H        0.84640    0.85370    0.45670    1.000
    C19      C        0.64610    0.00130    0.49400    1.000
    H11      H        0.59440    0.03700    0.50350    1.000
    C20      C        0.76770    0.90520    0.52420    1.000
    H12      H        0.79870    0.87740    0.55400    1.000
    C21      C        0.69220    0.96060    0.53710    1.000
    C22      C        0.60290    0.03450    0.61280    1.000
    C23      C        0.62070    0.12090    0.59930    1.000
    H13      H        0.67460    0.13670    0.57600    1.000
    C24      C        0.52540    0.00960    0.64610    1.000
    H14      H        0.51400    0.95080    0.65490    1.000
    C25      C        0.55880    0.18460    0.62030    1.000
    H15      H        0.57130    0.24310    0.61140    1.000
    C26      C        0.47800    0.16110    0.65440    1.000
    C27      C        0.46200    0.07380    0.66710    1.000
    H16      H        0.40810    0.05710    0.69010    1.000
    C28      C        0.41160    0.22810    0.68110    1.000
    C29      C        0.74790    0.83520    0.12490    1.000
    C30      C        0.71940    0.82950    0.06560    1.000
    C31      C        0.78470    0.83410    0.01650    1.000
    H17      H        0.84540    0.84380    0.02040    1.000
    C32      C        0.62870    0.81870    0.05930    1.000
    H18      H        0.58450    0.81670    0.09200    1.000
    C33      C        0.76050    0.82460    0.96220    1.000
    H19      H        0.80470    0.82510    0.92950    1.000
    C34      C        0.60330    0.81080    0.00460    1.000
    H20      H        0.54240    0.80330    0.00000    1.000
    C35      C        0.67040    0.81440    0.95680    1.000
    C36      C        0.57450    0.83440    0.87930    1.000
    C37      C        0.53870    0.91650    0.89120    1.000
    H21      H        0.56350    0.94770    0.91750    1.000
    C38      C        0.53820    0.78750    0.84090    1.000
    H22      H        0.56220    0.73180    0.83400    1.000
    C39      C        0.46580    0.95100    0.86340    1.000
    H23      H        0.44010    0.00540    0.87200    1.000
    C40      C        0.46670    0.82330    0.81270    1.000
    H24      H        0.44220    0.79180    0.78650    1.000
    C41      C        0.42990    0.90690    0.82300    1.000
    C42      C        0.35190    0.94360    0.79200    1.000
    C43      C        0.91080    0.72510    0.21660    1.000
    C44      C        0.98220    0.66350    0.18870    1.000
    C45      C        0.07120    0.68640    0.18140    1.000
    H25      H        0.08590    0.73980    0.19230    1.000
    C46      C        0.96120    0.58600    0.17160    1.000
    H26      H        0.90050    0.56980    0.17630    1.000
    C47      C        0.14020    0.63050    0.15770    1.000
    H27      H        0.20130    0.64530    0.15410    1.000
    C48      C        0.03090    0.53080    0.14690    1.000
    H28      H        0.01700    0.47760    0.13530    1.000
    C49      C        0.11840    0.55510    0.14000    1.000
    C50      C        0.20450    0.48640    0.06120    1.000
    C51      C        0.17380    0.54480    0.01900    1.000
    H29      H        0.13910    0.59440    0.02940    1.000
    C52      C        0.25720    0.41450    0.04640    1.000
    H30      H        0.27870    0.37500    0.07520    1.000
    C53      C        0.19430    0.52990    0.96070    1.000
    H31      H        0.17240    0.56940    0.93200    1.000
    C54      C        0.27790    0.40160    0.98800    1.000
    H32      H        0.31460    0.35300    0.97780    1.000
    C55      C        0.24670    0.45730    0.94440    1.000
    C56      C        0.27080    0.43770    0.88210    1.000
    C57      C        0.70510    0.50760    0.33590    1.000
    C58      C        0.70320    0.55330    0.38930    1.000
    C59      C        0.75690    0.62470    0.38980    1.000
    H33      H        0.79640    0.64250    0.35650    1.000
    C60      C        0.64550    0.52770    0.43900    1.000
    H34      H        0.60950    0.48010    0.43920    1.000
    C61      C        0.75230    0.66920    0.43870    1.000
    H35      H        0.78860    0.71660    0.43870    1.000
    C62      C        0.64050    0.57220    0.48870    1.000
    H36      H        0.60160    0.55440    0.52230    1.000
    C63      C        0.69360    0.64280    0.48770    1.000
    C64      C        0.60730    0.71030    0.56620    1.000
    C65      C        0.59350    0.69370    0.62540    1.000
    H37      H        0.64080    0.66900    0.64560    1.000
    C66      C        0.53950    0.74890    0.53650    1.000
    H38      H        0.54990    0.76060    0.49590    1.000
    C67      C        0.50910    0.71380    0.65550    1.000
    H39      H        0.49960    0.70120    0.69600    1.000
    C68      C        0.45440    0.77110    0.56660    1.000
    H40      H        0.40820    0.79860    0.54660    1.000
    C69      C        0.43990    0.75120    0.62740    1.000
    C70      C        0.34710    0.77120    0.65880    1.000
    C71      C        0.51840    0.48170    0.23810    1.000
    C72      C        0.42410    0.49760    0.26770    1.000
    C73      C        0.41250    0.54220    0.31800    1.000
    H41      H        0.46230    0.56750    0.32950    1.000
    C74      C        0.34980    0.46280    0.25060    1.000
    H42      H        0.35740    0.43200    0.21760    1.000
    C75      C        0.32780    0.54920    0.35040    1.000
    H43      H        0.32070    0.57760    0.38450    1.000
    C76      C        0.26420    0.47250    0.28090    1.000
    H44      H        0.21380    0.45160    0.26710    1.000
    C77      C        0.25250    0.51350    0.33220    1.000
    C78      C        0.09980    0.47370    0.35460    1.000
    C79      C        0.03400    0.51870    0.32600    1.000
    H45      H        0.03450    0.57910    0.31890    1.000
    C80      C        0.09590    0.38650    0.37050    1.000
    H46      H        0.13890    0.35820    0.39290    1.000
    C81      C        0.96660    0.47290    0.30770    1.000
    H47      H        0.92180    0.50240    0.28730    1.000
    C82      C        0.02870    0.34080    0.35350    1.000
    H48      H        0.02510    0.28140    0.36470    1.000
    C83      C        0.96560    0.38350    0.31940    1.000
    C84      C        0.89970    0.33270    0.29450    1.000
    Nd1      Nd       0.81455    0.13019    0.28154    1.000
    Nd2      Nd       0.78876    0.88006    0.23844    1.000
    Nd3      Nd       0.66772    0.66493    0.22696    1.000
    Nd4      Nd       0.70391    0.40303    0.23495    1.000
    O1       O        0.97650    0.09840    0.23803    1.000
    O2       O        0.88570    0.00170    0.21591    1.000
    O3       O        0.26350    0.91200    0.05755    1.000
    O4       O        0.17490    0.79700    0.81441    1.000
    O5       O        0.27020    0.68860    0.84134    1.000
    O6       O        0.75710    0.97940    0.31968    1.000
    O7       O        0.82730    0.85480    0.34410    1.000
    O8       O        0.66680    0.96910    0.59626    1.000
    O9       O        0.43190    0.30570    0.67774    1.000
    O10      O        0.33630    0.20320    0.71070    1.000
    O11      O        0.82060    0.87080    0.12981    1.000
    O12      O        0.69620    0.80490    0.17037    1.000
    O13      O        0.65140    0.79790    0.90180    1.000
    O14      O        0.32210    0.01990    0.80001    1.000
    O15      O        0.32160    0.89770    0.75750    1.000
    O16      O        0.93380    0.79600    0.22995    1.000
    O17      O        0.82690    0.70550    0.22502    1.000
    O18      O        0.18830    0.49580    0.12040    1.000
    O19      O        0.24580    0.49110    0.84200    1.000
    O20      O        0.31480    0.36870    0.87168    1.000
    O21      O        0.73720    0.54670    0.28647    1.000
    O22      O        0.67460    0.43270    0.33939    1.000
    O23      O        0.69340    0.68860    0.53650    1.000
    O24      O        0.32510    0.73450    0.71016    1.000
    O25      O        0.29370    0.82610    0.63542    1.000
    O26      O        0.58080    0.53350    0.24100    1.000
    O27      O        0.53840    0.41130    0.21423    1.000
    O28      O        0.17200    0.52110    0.36830    1.000
    O29      O        0.85050    0.37490    0.25770    1.000
    O30      O        0.89330    0.25250    0.30818    1.000
    C85      C        0.03560    0.96370    0.79000    1.000
    C86      C        0.95950    0.99950    0.83010    1.000
    C87      C        0.87090    0.97380    0.82890    1.000
    H49      H        0.86020    0.93560    0.80210    1.000
    C88      C        0.97320    0.05650    0.87060    1.000
    H50      H        0.03200    0.07450    0.87230    1.000
    C89      C        0.90100    0.08700    0.90860    1.000
    H51      H        0.91120    0.12580    0.93520    1.000
    C90      C        0.79830    0.00380    0.86690    1.000
    H52      H        0.73930    0.98620    0.86530    1.000
    C91      C        0.81360    0.06000    0.90720    1.000
    C92      C        0.74790    0.12460    0.99400    1.000
    C93      C        0.79330    0.07900    0.03660    1.000
    H53      H        0.81860    0.02340    0.03120    1.000
    C94      C        0.70810    0.20540    0.00170    1.000
    H54      H        0.67610    0.23520    0.97310    1.000
    C95      C        0.80100    0.11630    0.08710    1.000
    H55      H        0.83210    0.08570    0.11590    1.000
    C96      C        0.71650    0.24170    0.05280    1.000
    H56      H        0.68970    0.29680    0.05820    1.000
    C97      C        0.76300    0.19930    0.09590    1.000
    C98      C        0.77420    0.23950    0.15110    1.000
    C99      C        0.21760    0.07840    0.64070    1.000
    C100     C        0.24790    0.06550    0.57790    1.000
    C101     C        0.32390    0.01060    0.56390    1.000
    H57      H        0.35450    0.98180    0.59360    1.000
    C102     C        0.20340    0.10810    0.53410    1.000
    H58      H        0.15360    0.14630    0.54330    1.000
    C103     C        0.35390    0.99870    0.50600    1.000
    H59      H        0.40560    0.96300    0.49650    1.000
    C104     C        0.23230    0.09480    0.47580    1.000
    H60      H        0.20130    0.12260    0.44600    1.000
    C105     C        0.30780    0.03940    0.46290    1.000
    C106     C        0.39710    0.96550    0.38720    1.000
    C107     C        0.37930    0.87910    0.40070    1.000
    H61      H        0.32540    0.86330    0.42400    1.000
    C108     C        0.47460    0.99040    0.35390    1.000
    H62      H        0.48600    0.04920    0.34510    1.000
    C109     C        0.44120    0.81540    0.37970    1.000
    H63      H        0.42870    0.75690    0.38860    1.000
    C110     C        0.52200    0.83890    0.34560    1.000
    C111     C        0.53800    0.92620    0.33290    1.000
    H64      H        0.59190    0.94290    0.30990    1.000
    C112     C        0.58840    0.77190    0.31890    1.000
    C113     C        0.25210    0.16480    0.87510    1.000
    C114     C        0.28060    0.17050    0.93440    1.000
    C115     C        0.21530    0.16590    0.98350    1.000
    H65      H        0.15460    0.15620    0.97960    1.000
    C116     C        0.37130    0.18130    0.94070    1.000
    H66      H        0.41550    0.18330    0.90800    1.000
    C117     C        0.23950    0.17540    0.03780    1.000
    H67      H        0.19530    0.17490    0.07050    1.000
    C118     C        0.39670    0.18920    0.99540    1.000
    H68      H        0.45760    0.19670    0.00000    1.000
    C119     C        0.32960    0.18560    0.04320    1.000
    C120     C        0.42550    0.16560    0.12070    1.000
    C121     C        0.46130    0.08350    0.10880    1.000
    H69      H        0.43650    0.05230    0.08250    1.000
    C122     C        0.46180    0.21250    0.15910    1.000
    H70      H        0.43780    0.26820    0.16600    1.000
    C123     C        0.53420    0.04900    0.13660    1.000
    H71      H        0.55990    0.99460    0.12800    1.000
    C124     C        0.53330    0.17670    0.18730    1.000
    H72      H        0.55780    0.20820    0.21350    1.000
    C125     C        0.57010    0.09310    0.17700    1.000
    C126     C        0.64810    0.05640    0.20800    1.000
    C127     C        0.08920    0.27490    0.78340    1.000
    C128     C        0.01780    0.33650    0.81130    1.000
    C129     C        0.92880    0.31360    0.81860    1.000
    H73      H        0.91410    0.26020    0.80770    1.000
    C130     C        0.03880    0.41400    0.82840    1.000
    H74      H        0.09950    0.43020    0.82370    1.000
    C131     C        0.85980    0.36950    0.84230    1.000
    H75      H        0.79870    0.35470    0.84590    1.000
    C132     C        0.96910    0.46920    0.85310    1.000
    H76      H        0.98300    0.52240    0.86470    1.000
    C133     C        0.88160    0.44490    0.86000    1.000
    C134     C        0.79550    0.51360    0.93880    1.000
    C135     C        0.82620    0.45520    0.98100    1.000
    H77      H        0.86090    0.40560    0.97060    1.000
    C136     C        0.74280    0.58550    0.95360    1.000
    H78      H        0.72130    0.62500    0.92480    1.000
    C137     C        0.80570    0.47010    0.03930    1.000
    H79      H        0.82760    0.43060    0.06800    1.000
    C138     C        0.72210    0.59840    0.01200    1.000
    H80      H        0.68540    0.64700    0.02220    1.000
    C139     C        0.75330    0.54270    0.05560    1.000
    C140     C        0.72920    0.56230    0.11790    1.000
    C141     C        0.29490    0.49240    0.66410    1.000
    C142     C        0.29680    0.44670    0.61070    1.000
    C143     C        0.24310    0.37530    0.61020    1.000
    H81      H        0.20360    0.35750    0.64350    1.000
    C144     C        0.35450    0.47230    0.56100    1.000
    H82      H        0.39050    0.51990    0.56080    1.000
    C145     C        0.24770    0.33080    0.56130    1.000
    H83      H        0.21140    0.28340    0.56130    1.000
    C146     C        0.35950    0.42780    0.51130    1.000
    H84      H        0.39840    0.44560    0.47770    1.000
    C147     C        0.30640    0.35720    0.51230    1.000
    C148     C        0.39270    0.28970    0.43380    1.000
    C149     C        0.40650    0.30630    0.37460    1.000
    H85      H        0.35920    0.33100    0.35440    1.000
    C150     C        0.46050    0.25110    0.46350    1.000
    H86      H        0.45010    0.23940    0.50410    1.000
    C151     C        0.49090    0.28620    0.34450    1.000
    H87      H        0.50040    0.29880    0.30400    1.000
    C152     C        0.54560    0.22890    0.43340    1.000
    H88      H        0.59180    0.20140    0.45340    1.000
    C153     C        0.56010    0.24880    0.37260    1.000
    C154     C        0.65290    0.22880    0.34120    1.000
    C155     C        0.48160    0.51830    0.76190    1.000
    C156     C        0.57590    0.50240    0.73230    1.000
    C157     C        0.58750    0.45780    0.68200    1.000
    H89      H        0.53770    0.43250    0.67050    1.000
    C158     C        0.65020    0.53720    0.74940    1.000
    H90      H        0.64260    0.56800    0.78240    1.000
    C159     C        0.67220    0.45080    0.64960    1.000
    H91      H        0.67930    0.42240    0.61550    1.000
    C160     C        0.73580    0.52750    0.71910    1.000
    H92      H        0.78620    0.54840    0.73290    1.000
    C161     C        0.74750    0.48650    0.66780    1.000
    C162     C        0.90020    0.52630    0.64540    1.000
    C163     C        0.96600    0.48130    0.67400    1.000
    H93      H        0.96550    0.42090    0.68110    1.000
    C164     C        0.90410    0.61350    0.62950    1.000
    H94      H        0.86110    0.64180    0.60710    1.000
    C165     C        0.03340    0.52710    0.69230    1.000
    H95      H        0.07820    0.49760    0.71270    1.000
    C166     C        0.97130    0.65920    0.64650    1.000
    H96      H        0.97490    0.71860    0.63530    1.000
    C167     C        0.03440    0.61650    0.68060    1.000
    C168     C        0.10030    0.66730    0.70550    1.000
    Nd5      Nd       0.18545    0.86981    0.71846    1.000
    Nd6      Nd       0.21124    0.11994    0.76156    1.000
    Nd7      Nd       0.33228    0.33507    0.77304    1.000
    Nd8      Nd       0.29609    0.59697    0.76505    1.000
    O31      O        0.02350    0.90160    0.76197    1.000
    O32      O        0.11430    0.99830    0.78409    1.000
    O33      O        0.73650    0.08800    0.94245    1.000
    O34      O        0.82510    0.20300    0.18559    1.000
    O35      O        0.72980    0.31140    0.15866    1.000
    O36      O        0.24290    0.02060    0.68032    1.000
    O37      O        0.17270    0.14520    0.65590    1.000
    O38      O        0.33320    0.03090    0.40374    1.000
    O39      O        0.56810    0.69430    0.32226    1.000
    O40      O        0.66370    0.79680    0.28930    1.000
    O41      O        0.17940    0.12920    0.87019    1.000
    O42      O        0.30380    0.19510    0.82963    1.000
    O43      O        0.34860    0.20210    0.09820    1.000
    O44      O        0.67790    0.98010    0.19999    1.000
    O45      O        0.67840    0.10230    0.24250    1.000
    O46      O        0.06620    0.20400    0.77005    1.000
    O47      O        0.17310    0.29450    0.77498    1.000
    O48      O        0.81170    0.50420    0.87960    1.000
    O49      O        0.75420    0.50890    0.15800    1.000
    O50      O        0.68520    0.63130    0.12832    1.000
    O51      O        0.26280    0.45330    0.71353    1.000
    O52      O        0.32540    0.56730    0.66061    1.000
    O53      O        0.30660    0.31140    0.46350    1.000
    O54      O        0.67490    0.26550    0.28984    1.000
    O55      O        0.70630    0.17390    0.36458    1.000
    O56      O        0.41920    0.46650    0.75900    1.000
    O57      O        0.46160    0.58870    0.78577    1.000
    O58      O        0.82800    0.47890    0.63170    1.000
    O59      O        0.14950    0.62510    0.74230    1.000
    O60      O        0.10670    0.74750    0.69182    1.000
