# CIF file generated by openbabel 3.1.0, see https://openbabel.org
data_I
_chemical_name_common 'image0'
_cell_length_a 20.0787
_cell_length_b 20.0787
_cell_length_c 20.0787
_cell_angle_alpha 90
_cell_angle_beta 90
_cell_angle_gamma 90
_space_group_name_H-M_alt 'P 1'
_space_group_name_Hall 'P 1'
loop_
    _symmetry_equiv_pos_as_xyz
    x,y,z
loop_
    _atom_site_label
    _atom_site_type_symbol
    _atom_site_fract_x
    _atom_site_fract_y
    _atom_site_fract_z
    _atom_site_occupancy
    Zn1      Zn       0.25119    0.27053    0.14570    1.000
    N1       N        0.34264    0.24318    0.17105    1.000
    C1       C        0.40210    0.26890    0.15940    1.000
    H1       H        0.41050    0.30360    0.12990    1.000
    C2       C        0.45015    0.23670    0.19730    1.000
    N2       N        0.35026    0.19397    0.21748    1.000
    O1       O        0.54899    0.29235    0.16480    1.000
    C3       C        0.52180    0.25030    0.20070    1.000
    C4       C        0.41470    0.18970    0.23280    1.000
    H2       H        0.43300    0.15960    0.26290    1.000
    O2       O        0.55496    0.21668    0.24317    1.000
    Zn2      Zn       0.24881    0.72947    0.64570    1.000
    N3       N        0.15736    0.75682    0.67105    1.000
    C5       C        0.09790    0.73110    0.65940    1.000
    H3       H        0.08950    0.69640    0.62990    1.000
    C6       C        0.04985    0.76330    0.69730    1.000
    N4       N        0.14974    0.80603    0.71748    1.000
    O3       O        0.95101    0.70765    0.66480    1.000
    C7       C        0.97820    0.74970    0.70070    1.000
    C8       C        0.08530    0.81030    0.73280    1.000
    H4       H        0.06700    0.84040    0.76290    1.000
    O4       O        0.94504    0.78332    0.74317    1.000
    Zn3      Zn       0.74881    0.77053    0.35430    1.000
    N5       N        0.65736    0.74318    0.32895    1.000
    C9       C        0.59790    0.76890    0.34060    1.000
    H5       H        0.58950    0.80360    0.37010    1.000
    C10      C        0.54985    0.73670    0.30270    1.000
    N6       N        0.64974    0.69397    0.28252    1.000
    O5       O        0.45101    0.79235    0.33520    1.000
    C11      C        0.47820    0.75030    0.29930    1.000
    C12      C        0.58530    0.68970    0.26720    1.000
    H6       H        0.56700    0.65960    0.23710    1.000
    O6       O        0.44504    0.71668    0.25683    1.000
    Zn4      Zn       0.75119    0.22947    0.85430    1.000
    N7       N        0.84264    0.25682    0.82895    1.000
    C13      C        0.90210    0.23110    0.84060    1.000
    H7       H        0.91050    0.19640    0.87010    1.000
    C14      C        0.95015    0.26330    0.80270    1.000
    N8       N        0.85026    0.30603    0.78252    1.000
    O7       O        0.04899    0.20765    0.83520    1.000
    C15      C        0.02180    0.24970    0.79930    1.000
    C16      C        0.91470    0.31030    0.76720    1.000
    H8       H        0.93300    0.34040    0.73710    1.000
    O8       O        0.05496    0.28332    0.75683    1.000
    Zn5      Zn       0.14570    0.25119    0.27053    1.000
    N9       N        0.17105    0.34264    0.24318    1.000
    C17      C        0.15940    0.40210    0.26890    1.000
    H9       H        0.12990    0.41050    0.30360    1.000
    C18      C        0.19730    0.45015    0.23670    1.000
    N10      N        0.21748    0.35026    0.19397    1.000
    O9       O        0.16480    0.54899    0.29235    1.000
    C19      C        0.20070    0.52180    0.25030    1.000
    C20      C        0.23280    0.41470    0.18970    1.000
    H10      H        0.26290    0.43300    0.15960    1.000
    O10      O        0.24317    0.55496    0.21668    1.000
    Zn6      Zn       0.64570    0.24881    0.72947    1.000
    N11      N        0.67105    0.15736    0.75682    1.000
    C21      C        0.65940    0.09790    0.73110    1.000
    H11      H        0.62990    0.08950    0.69640    1.000
    C22      C        0.69730    0.04985    0.76330    1.000
    N12      N        0.71748    0.14974    0.80603    1.000
    O11      O        0.66480    0.95101    0.70765    1.000
    C23      C        0.70070    0.97820    0.74970    1.000
    C24      C        0.73280    0.08530    0.81030    1.000
    H12      H        0.76290    0.06700    0.84040    1.000
    O12      O        0.74317    0.94504    0.78332    1.000
    Zn7      Zn       0.35430    0.74881    0.77053    1.000
    N13      N        0.32895    0.65736    0.74318    1.000
    C25      C        0.34060    0.59790    0.76890    1.000
    H13      H        0.37010    0.58950    0.80360    1.000
    C26      C        0.30270    0.54985    0.73670    1.000
    N14      N        0.28252    0.64974    0.69397    1.000
    O13      O        0.33520    0.45101    0.79235    1.000
    C27      C        0.29930    0.47820    0.75030    1.000
    C28      C        0.26720    0.58530    0.68970    1.000
    H14      H        0.23710    0.56700    0.65960    1.000
    O14      O        0.25683    0.44504    0.71668    1.000
    Zn8      Zn       0.85430    0.75119    0.22947    1.000
    N15      N        0.82895    0.84264    0.25682    1.000
    C29      C        0.84060    0.90210    0.23110    1.000
    H15      H        0.87010    0.91050    0.19640    1.000
    C30      C        0.80270    0.95015    0.26330    1.000
    N16      N        0.78252    0.85026    0.30603    1.000
    O15      O        0.83520    0.04899    0.20765    1.000
    C31      C        0.79930    0.02180    0.24970    1.000
    C32      C        0.76720    0.91470    0.31030    1.000
    H16      H        0.73710    0.93300    0.34040    1.000
    O16      O        0.75683    0.05496    0.28332    1.000
    Zn9      Zn       0.27053    0.14570    0.25119    1.000
    N17      N        0.24318    0.17105    0.34264    1.000
    C33      C        0.26890    0.15940    0.40210    1.000
    H17      H        0.30360    0.12990    0.41050    1.000
    C34      C        0.23670    0.19730    0.45015    1.000
    N18      N        0.19397    0.21748    0.35026    1.000
    O17      O        0.29235    0.16480    0.54899    1.000
    C35      C        0.25030    0.20070    0.52180    1.000
    C36      C        0.18970    0.23280    0.41470    1.000
    H18      H        0.15960    0.26290    0.43300    1.000
    O18      O        0.21668    0.24317    0.55496    1.000
    Zn10     Zn       0.72947    0.64570    0.24881    1.000
    N19      N        0.75682    0.67105    0.15736    1.000
    C37      C        0.73110    0.65940    0.09790    1.000
    H19      H        0.69640    0.62990    0.08950    1.000
    C38      C        0.76330    0.69730    0.04985    1.000
    N20      N        0.80603    0.71748    0.14974    1.000
    O19      O        0.70765    0.66480    0.95101    1.000
    C39      C        0.74970    0.70070    0.97820    1.000
    C40      C        0.81030    0.73280    0.08530    1.000
    H20      H        0.84040    0.76290    0.06700    1.000
    O20      O        0.78332    0.74317    0.94504    1.000
    Zn11     Zn       0.77053    0.35430    0.74881    1.000
    N21      N        0.74318    0.32895    0.65736    1.000
    C41      C        0.76890    0.34060    0.59790    1.000
    H21      H        0.80360    0.37010    0.58950    1.000
    C42      C        0.73670    0.30270    0.54985    1.000
    N22      N        0.69397    0.28252    0.64974    1.000
    O21      O        0.79235    0.33520    0.45101    1.000
    C43      C        0.75030    0.29930    0.47820    1.000
    C44      C        0.68970    0.26720    0.58530    1.000
    H22      H        0.65960    0.23710    0.56700    1.000
    O22      O        0.71668    0.25683    0.44504    1.000
    Zn12     Zn       0.22947    0.85430    0.75119    1.000
    N23      N        0.25682    0.82895    0.84264    1.000
    C45      C        0.23110    0.84060    0.90210    1.000
    H23      H        0.19640    0.87010    0.91050    1.000
    C46      C        0.26330    0.80270    0.95015    1.000
    N24      N        0.30603    0.78252    0.85026    1.000
    O23      O        0.20765    0.83520    0.04899    1.000
    C47      C        0.24970    0.79930    0.02180    1.000
    C48      C        0.31030    0.76720    0.91470    1.000
    H24      H        0.34040    0.73710    0.93300    1.000
    O24      O        0.28332    0.75683    0.05496    1.000
    Zn13     Zn       0.74881    0.72947    0.85430    1.000
    N25      N        0.65736    0.75682    0.82895    1.000
    C49      C        0.59790    0.73110    0.84060    1.000
    H25      H        0.58950    0.69640    0.87010    1.000
    C50      C        0.54985    0.76330    0.80270    1.000
    N26      N        0.64974    0.80603    0.78252    1.000
    O25      O        0.45101    0.70765    0.83520    1.000
    C51      C        0.47820    0.74970    0.79930    1.000
    C52      C        0.58530    0.81030    0.76720    1.000
    H26      H        0.56700    0.84040    0.73710    1.000
    O26      O        0.44504    0.78332    0.75683    1.000
    Zn14     Zn       0.75119    0.27053    0.35430    1.000
    N27      N        0.84264    0.24318    0.32895    1.000
    C53      C        0.90210    0.26890    0.34060    1.000
    H27      H        0.91050    0.30360    0.37010    1.000
    C54      C        0.95015    0.23670    0.30270    1.000
    N28      N        0.85026    0.19397    0.28252    1.000
    O27      O        0.04899    0.29235    0.33520    1.000
    C55      C        0.02180    0.25030    0.29930    1.000
    C56      C        0.91470    0.18970    0.26720    1.000
    H28      H        0.93300    0.15960    0.23710    1.000
    O28      O        0.05496    0.21668    0.25683    1.000
    Zn15     Zn       0.25119    0.22947    0.64570    1.000
    N29      N        0.34264    0.25682    0.67105    1.000
    C57      C        0.40210    0.23110    0.65940    1.000
    H29      H        0.41050    0.19640    0.62990    1.000
    C58      C        0.45015    0.26330    0.69730    1.000
    N30      N        0.35026    0.30603    0.71748    1.000
    O29      O        0.54899    0.20765    0.66480    1.000
    C59      C        0.52180    0.24970    0.70070    1.000
    C60      C        0.41470    0.31030    0.73280    1.000
    H30      H        0.43300    0.34040    0.76290    1.000
    O30      O        0.55496    0.28332    0.74317    1.000
    Zn16     Zn       0.24881    0.77053    0.14570    1.000
    N31      N        0.15736    0.74318    0.17105    1.000
    C61      C        0.09790    0.76890    0.15940    1.000
    H31      H        0.08950    0.80360    0.12990    1.000
    C62      C        0.04985    0.73670    0.19730    1.000
    N32      N        0.14974    0.69397    0.21748    1.000
    O31      O        0.95101    0.79235    0.16480    1.000
    C63      C        0.97820    0.75030    0.20070    1.000
    C64      C        0.08530    0.68970    0.23280    1.000
    H32      H        0.06700    0.65960    0.26290    1.000
    O32      O        0.94504    0.71668    0.24317    1.000
    Zn17     Zn       0.85430    0.74881    0.72947    1.000
    N33      N        0.82895    0.65736    0.75682    1.000
    C65      C        0.84060    0.59790    0.73110    1.000
    H33      H        0.87010    0.58950    0.69640    1.000
    C66      C        0.80270    0.54985    0.76330    1.000
    N34      N        0.78252    0.64974    0.80603    1.000
    O33      O        0.83520    0.45101    0.70765    1.000
    C67      C        0.79930    0.47820    0.74970    1.000
    C68      C        0.76720    0.58530    0.81030    1.000
    H34      H        0.73710    0.56700    0.84040    1.000
    O34      O        0.75683    0.44504    0.78332    1.000
    Zn18     Zn       0.35430    0.75119    0.27053    1.000
    N35      N        0.32895    0.84264    0.24318    1.000
    C69      C        0.34060    0.90210    0.26890    1.000
    H35      H        0.37010    0.91050    0.30360    1.000
    C70      C        0.30270    0.95015    0.23670    1.000
    N36      N        0.28252    0.85026    0.19397    1.000
    O35      O        0.33520    0.04899    0.29235    1.000
    C71      C        0.29930    0.02180    0.25030    1.000
    C72      C        0.26720    0.91470    0.18970    1.000
    H36      H        0.23710    0.93300    0.15960    1.000
    O36      O        0.25683    0.05496    0.21668    1.000
    Zn19     Zn       0.64570    0.25119    0.22947    1.000
    N37      N        0.67105    0.34264    0.25682    1.000
    C73      C        0.65940    0.40210    0.23110    1.000
    H37      H        0.62990    0.41050    0.19640    1.000
    C74      C        0.69730    0.45015    0.26330    1.000
    N38      N        0.71748    0.35026    0.30603    1.000
    O37      O        0.66480    0.54899    0.20765    1.000
    C75      C        0.70070    0.52180    0.24970    1.000
    C76      C        0.73280    0.41470    0.31030    1.000
    H38      H        0.76290    0.43300    0.34040    1.000
    O38      O        0.74317    0.55496    0.28332    1.000
    Zn20     Zn       0.14570    0.24881    0.77053    1.000
    N39      N        0.17105    0.15736    0.74318    1.000
    C77      C        0.15940    0.09790    0.76890    1.000
    H39      H        0.12990    0.08950    0.80360    1.000
    C78      C        0.19730    0.04985    0.73670    1.000
    N40      N        0.21748    0.14974    0.69397    1.000
    O39      O        0.16480    0.95101    0.79235    1.000
    C79      C        0.20070    0.97820    0.75030    1.000
    C80      C        0.23280    0.08530    0.68970    1.000
    H40      H        0.26290    0.06700    0.65960    1.000
    O40      O        0.24317    0.94504    0.71668    1.000
    Zn21     Zn       0.72947    0.85430    0.74881    1.000
    N41      N        0.75682    0.82895    0.65736    1.000
    C81      C        0.73110    0.84060    0.59790    1.000
    H41      H        0.69640    0.87010    0.58950    1.000
    C82      C        0.76330    0.80270    0.54985    1.000
    N42      N        0.80603    0.78252    0.64974    1.000
    O41      O        0.70765    0.83520    0.45101    1.000
    C83      C        0.74970    0.79930    0.47820    1.000
    C84      C        0.81030    0.76720    0.58530    1.000
    H42      H        0.84040    0.73710    0.56700    1.000
    O42      O        0.78332    0.75683    0.44504    1.000
    Zn22     Zn       0.27053    0.35430    0.75119    1.000
    N43      N        0.24318    0.32895    0.84264    1.000
    C85      C        0.26890    0.34060    0.90210    1.000
    H43      H        0.30360    0.37010    0.91050    1.000
    C86      C        0.23670    0.30270    0.95015    1.000
    N44      N        0.19397    0.28252    0.85026    1.000
    O43      O        0.29235    0.33520    0.04899    1.000
    C87      C        0.25030    0.29930    0.02180    1.000
    C88      C        0.18970    0.26720    0.91470    1.000
    H44      H        0.15960    0.23710    0.93300    1.000
    O44      O        0.21668    0.25683    0.05496    1.000
    Zn23     Zn       0.22947    0.64570    0.25119    1.000
    N45      N        0.25682    0.67105    0.34264    1.000
    C89      C        0.23110    0.65940    0.40210    1.000
    H45      H        0.19640    0.62990    0.41050    1.000
    C90      C        0.26330    0.69730    0.45015    1.000
    N46      N        0.30603    0.71748    0.35026    1.000
    O45      O        0.20765    0.66480    0.54899    1.000
    C91      C        0.24970    0.70070    0.52180    1.000
    C92      C        0.31030    0.73280    0.41470    1.000
    H46      H        0.34040    0.76290    0.43300    1.000
    O46      O        0.28332    0.74317    0.55496    1.000
    Zn24     Zn       0.77053    0.14570    0.24881    1.000
    N47      N        0.74318    0.17105    0.15736    1.000
    C93      C        0.76890    0.15940    0.09790    1.000
    H47      H        0.80360    0.12990    0.08950    1.000
    C94      C        0.73670    0.19730    0.04985    1.000
    N48      N        0.69397    0.21748    0.14974    1.000
    O47      O        0.79235    0.16480    0.95101    1.000
    C95      C        0.75030    0.20070    0.97820    1.000
    C96      C        0.68970    0.23280    0.08530    1.000
    H48      H        0.65960    0.26290    0.06700    1.000
    O48      O        0.71668    0.24317    0.94504    1.000
    O49      O        0.20120    0.20120    0.20120    1.000
    O50      O        0.29880    0.79880    0.70120    1.000
    O51      O        0.79880    0.70120    0.29880    1.000
    O52      O        0.70120    0.29880    0.79880    1.000
    O53      O        0.79880    0.79880    0.79880    1.000
    O54      O        0.70120    0.20120    0.29880    1.000
    O55      O        0.20120    0.29880    0.70120    1.000
    O56      O        0.29880    0.70120    0.20120    1.000
