# CIF file generated by openbabel 3.1.0, see https://openbabel.org
data_I
_chemical_name_common 'LAZGOK_clean5b'
_cell_length_a 11.583
_cell_length_b 11.665
_cell_length_c 14.159
_cell_angle_alpha 93.932
_cell_angle_beta 111.98
_cell_angle_gamma 110.018
_space_group_name_H-M_alt 'P 1'
_space_group_name_Hall 'P 1'
loop_
    _symmetry_equiv_pos_as_xyz
    x,y,z
loop_
    _atom_site_label
    _atom_site_type_symbol
    _atom_site_fract_x
    _atom_site_fract_y
    _atom_site_fract_z
    _atom_site_occupancy
    Cu1      Cu       0.39120    0.35341    0.35517    1.000
    Cu2      Cu       0.36843    0.91268    0.52451    1.000
    Cu3      Cu       0.60880    0.64659    0.64483    1.000
    Cu4      Cu       0.63157    0.08732    0.47549    1.000
    Cu5      Cu       0.50000    0.00000    0.00000    1.000
    H1       H        0.11040    0.96540    0.32660    1.000
    H2       H        0.14620    0.10740    0.37610    1.000
    H3       H        0.27890    0.18080    0.55870    1.000
    H4       H        0.17410    0.10080    0.60070    1.000
    H5       H        0.69490    0.60000    0.16510    1.000
    H6       H        0.79140    0.74120    0.22820    1.000
    H7       H        0.70700    0.43490    0.24510    1.000
    H8       H        0.80610    0.46060    0.36560    1.000
    H9       H        0.96650    0.53590    0.62140    1.000
    H10      H        0.00230    0.58520    0.74110    1.000
    H11      H        0.08730    0.89440    0.74270    1.000
    H12      H        0.06270    0.79050    0.80880    1.000
    H13      H        0.88960    0.03460    0.67340    1.000
    H14      H        0.85380    0.89260    0.62390    1.000
    H15      H        0.72110    0.81920    0.44130    1.000
    H16      H        0.82590    0.89920    0.39930    1.000
    H17      H        0.30510    0.40000    0.83490    1.000
    H18      H        0.20860    0.25880    0.77180    1.000
    H19      H        0.29300    0.56510    0.75490    1.000
    H20      H        0.19390    0.53940    0.63440    1.000
    H21      H        0.03350    0.46410    0.37860    1.000
    H22      H        0.99770    0.41480    0.25890    1.000
    H23      H        0.91270    0.10560    0.25730    1.000
    H24      H        0.93730    0.20950    0.19120    1.000
    C1       C        0.32130    0.07910    0.38370    1.000
    C2       C        0.17670    0.03770    0.38560    1.000
    C3       C        0.24430    0.09960    0.57720    1.000
    C4       C        0.35830    0.09260    0.66790    1.000
    C5       C        0.08850    0.88910    0.48180    1.000
    C6       C        0.92950    0.69730    0.39970    1.000
    C7       C        0.78980    0.65660    0.21170    1.000
    C8       C        0.87340    0.66220    0.15510    1.000
    C9       C        0.74690    0.49270    0.31400    1.000
    C10      C        0.63490    0.48800    0.34300    1.000
    C11      C        0.02390    0.75140    0.57300    1.000
    C12      C        0.96040    0.59690    0.66950    1.000
    C13      C        0.81290    0.56840    0.64090    1.000
    C14      C        0.10490    0.81980    0.76100    1.000
    C15      C        0.25580    0.85910    0.81900    1.000
    C16      C        0.67870    0.92090    0.61630    1.000
    C17      C        0.82330    0.96230    0.61440    1.000
    C18      C        0.75570    0.90040    0.42280    1.000
    C19      C        0.64170    0.90740    0.33210    1.000
    C20      C        0.91150    0.11090    0.51820    1.000
    C21      C        0.07050    0.30270    0.60030    1.000
    C22      C        0.21020    0.34340    0.78830    1.000
    C23      C        0.12660    0.33780    0.84490    1.000
    C24      C        0.25310    0.50730    0.68600    1.000
    C25      C        0.36510    0.51200    0.65700    1.000
    C26      C        0.97610    0.24860    0.42700    1.000
    C27      C        0.03960    0.40310    0.33050    1.000
    C28      C        0.18710    0.43160    0.35910    1.000
    C29      C        0.89510    0.18020    0.23900    1.000
    C30      C        0.74420    0.14090    0.18100    1.000
    N1       N        0.17930    0.00320    0.48400    1.000
    N2       N        0.00150    0.80930    0.38880    1.000
    N3       N        0.83060    0.61390    0.30850    1.000
    N4       N        0.93820    0.65960    0.48830    1.000
    N5       N        0.03720    0.72140    0.66530    1.000
    N6       N        0.09690    0.87020    0.57440    1.000
    N7       N        0.82070    0.99680    0.51600    1.000
    N8       N        0.99850    0.19070    0.61120    1.000
    N9       N        0.16940    0.38610    0.69150    1.000
    N10      N        0.06180    0.34040    0.51170    1.000
    N11      N        0.96280    0.27860    0.33470    1.000
    N12      N        0.90310    0.12980    0.42560    1.000
    O1       O        0.33460    0.14020    0.31650    1.000
    O2       O        0.40450    0.04190    0.44400    1.000
    O3       O        0.42220    0.02960    0.65200    1.000
    O4       O        0.39010    0.15420    0.75390    1.000
    O5       O        0.97950    0.62400    0.19580    1.000
    O6       O        0.81840    0.70090    0.06110    1.000
    O7       O        0.61140    0.58450    0.35350    1.000
    O8       O        0.56650    0.38400    0.35420    1.000
    O9       O        0.77970    0.66180    0.64590    1.000
    O10      O        0.73110    0.45650    0.62010    1.000
    O11      O        0.31910    0.81470    0.78420    1.000
    O12      O        0.30900    0.93980    0.90420    1.000
    O13      O        0.66540    0.85980    0.68350    1.000
    O14      O        0.59550    0.95810    0.55600    1.000
    O15      O        0.57780    0.97040    0.34800    1.000
    O16      O        0.60990    0.84580    0.24610    1.000
    O17      O        0.02050    0.37600    0.80420    1.000
    O18      O        0.18160    0.29910    0.93890    1.000
    O19      O        0.38860    0.41550    0.64650    1.000
    O20      O        0.43350    0.61600    0.64580    1.000
    O21      O        0.22030    0.33820    0.35410    1.000
    O22      O        0.26890    0.54350    0.37990    1.000
    O23      O        0.68090    0.18530    0.21580    1.000
    O24      O        0.69100    0.06020    0.09580    1.000
