# CIF file generated by openbabel 3.1.0, see https://openbabel.org
data_I
_chemical_name_common 'image0'
_cell_length_a 32.614
_cell_length_b 18.976
_cell_length_c 17.57
_cell_angle_alpha 90
_cell_angle_beta 103.206
_cell_angle_gamma 90
_space_group_name_H-M_alt 'P 1'
_space_group_name_Hall 'P 1'
loop_
    _symmetry_equiv_pos_as_xyz
    x,y,z
loop_
    _atom_site_label
    _atom_site_type_symbol
    _atom_site_fract_x
    _atom_site_fract_y
    _atom_site_fract_z
    _atom_site_occupancy
    Co1      Co       0.90100    0.35351    0.95937    1.000
    O1       O        0.93209    0.41033    0.06067    1.000
    O2       O        0.94863    0.29915    0.05032    1.000
    O3       O        0.85624    0.31929    0.01908    1.000
    O4       O        0.81899    0.40483    0.05890    1.000
    N1       N        0.86058    0.43039    0.89754    1.000
    N2       N        0.82208    0.52525    0.86495    1.000
    N3       N        0.84992    0.16669    0.84810    1.000
    N4       N        0.88097    0.26878    0.88180    1.000
    N5       N        0.51179    0.89904    0.87649    1.000
    N6       N        0.44878    0.88412    0.90088    1.000
    C1       C        0.95101    0.35538    0.08910    1.000
    C2       C        0.97641    0.35695    0.17210    1.000
    C3       C        0.95553    0.35821    0.23340    1.000
    C4       C        0.91051    0.36066    0.21940    1.000
    H1       H        0.89410    0.36190    0.16730    1.000
    C5       C        0.89124    0.36130    0.28020    1.000
    H2       H        0.86140    0.36220    0.27020    1.000
    C6       C        0.91503    0.36060    0.35830    1.000
    H3       H        0.90100    0.36110    0.40010    1.000
    C7       C        0.04235    0.35910    0.12590    1.000
    H4       H        0.02680    0.35920    0.07310    1.000
    C8       C        0.02053    0.35741    0.18760    1.000
    C9       C        0.82310    0.34531    0.03328    1.000
    C10      C        0.78511    0.29613    0.01647    1.000
    C11      C        0.75689    0.29829    0.94370    1.000
    C12      C        0.76296    0.34486    0.88320    1.000
    H5       H        0.78640    0.37590    0.89330    1.000
    C13      C        0.73626    0.34580    0.81240    1.000
    H6       H        0.74140    0.37660    0.77300    1.000
    C14      C        0.70044    0.30080    0.79610    1.000
    H7       H        0.68170    0.30190    0.74600    1.000
    C15      C        0.80705    0.24340    0.14850    1.000
    H8       H        0.83150    0.27210    0.15970    1.000
    C16      C        0.77889    0.24788    0.07310    1.000
    C17      C        0.84434    0.43013    0.81810    1.000
    H9       H        0.84910    0.39440    0.78310    1.000
    C18      C        0.82068    0.48817    0.79730    1.000
    H10      H        0.80600    0.50090    0.74600    1.000
    C19      C        0.84666    0.48842    0.92368    1.000
    H11      H        0.85310    0.50260    0.97700    1.000
    C20      C        0.80275    0.59226    0.86980    1.000
    C21      C        0.76665    0.61034    0.81370    1.000
    H12      H        0.75430    0.57790    0.77390    1.000
    C22      C        0.74925    0.67631    0.81710    1.000
    H13      H        0.72480    0.68910    0.77870    1.000
    C23      C        0.76644    0.72418    0.87490    1.000
    C24      C        0.80239    0.70497    0.93067    1.000
    H14      H        0.81460    0.73710    0.97090    1.000
    C25      C        0.82037    0.63925    0.92767    1.000
    H15      H        0.84500    0.62660    0.96570    1.000
    C26      C        0.74733    0.79486    0.87760    1.000
    C27      C        0.70432    0.80153    0.87264    1.000
    H16      H        0.68710    0.76060    0.86620    1.000
    C28      C        0.68621    0.86750    0.87694    1.000
    C29      C        0.71191    0.92673    0.88271    1.000
    H17      H        0.70010    0.97190    0.88670    1.000
    C30      C        0.75463    0.92158    0.88285    1.000
    C31      C        0.77224    0.85462    0.88370    1.000
    H18      H        0.80170    0.84990    0.88850    1.000
    C32      C        0.77979    0.98527    0.87561    1.000
    C33      C        0.81448    0.98133    0.84120    1.000
    H19      H        0.82230    0.93680    0.82430    1.000
    C34      C        0.83774    0.04055    0.83100    1.000
    H20      H        0.86130    0.03660    0.80800    1.000
    C35      C        0.82597    0.10529    0.85500    1.000
    C36      C        0.79136    0.11104    0.88800    1.000
    H21      H        0.78320    0.15590    0.90330    1.000
    C37      C        0.76867    0.05166    0.89860    1.000
    H22      H        0.74520    0.05610    0.92200    1.000
    C38      C        0.87354    0.18165    0.79380    1.000
    H23      H        0.87620    0.15350    0.75040    1.000
    C39      C        0.89203    0.24429    0.81520    1.000
    H24      H        0.91010    0.26820    0.78830    1.000
    C40      C        0.85567    0.22081    0.89910    1.000
    H25      H        0.84290    0.22380    0.94250    1.000
    C41      C        0.64051    0.87463    0.87468    1.000
    C42      C        0.62034    0.93933    0.86220    1.000
    H26      H        0.63600    0.97950    0.85320    1.000
    C43      C        0.57842    0.94719    0.86230    1.000
    H27      H        0.56560    0.99230    0.85360    1.000
    C44      C        0.55502    0.88938    0.87510    1.000
    C45      C        0.57401    0.82395    0.88730    1.000
    H28      H        0.55810    0.78390    0.89570    1.000
    C46      C        0.61604    0.81680    0.88730    1.000
    H29      H        0.62880    0.77160    0.89600    1.000
    C47      C        0.48853    0.95840    0.85110    1.000
    H30      H        0.49760    0.99880    0.82750    1.000
    C48      C        0.45041    0.94810    0.86600    1.000
    H31      H        0.42770    0.98070    0.85410    1.000
    C49      C        0.48629    0.85586    0.90510    1.000
    H32      H        0.49430    0.81040    0.92590    1.000
    Co2      Co       0.40100    0.85351    0.95937    1.000
    O5       O        0.43209    0.91033    0.06067    1.000
    O6       O        0.44863    0.79915    0.05032    1.000
    O7       O        0.35624    0.81929    0.01908    1.000
    O8       O        0.31899    0.90483    0.05890    1.000
    N7       N        0.36058    0.93039    0.89754    1.000
    N8       N        0.32208    0.02525    0.86495    1.000
    N9       N        0.34992    0.66669    0.84810    1.000
    N10      N        0.38097    0.76878    0.88180    1.000
    N11      N        0.01179    0.39904    0.87649    1.000
    N12      N        0.94878    0.38412    0.90088    1.000
    C50      C        0.45101    0.85538    0.08910    1.000
    C51      C        0.47641    0.85695    0.17210    1.000
    C52      C        0.45553    0.85821    0.23340    1.000
    C53      C        0.41051    0.86066    0.21940    1.000
    H33      H        0.39410    0.86190    0.16730    1.000
    C54      C        0.39124    0.86130    0.28020    1.000
    H34      H        0.36140    0.86220    0.27020    1.000
    C55      C        0.41503    0.86060    0.35830    1.000
    H35      H        0.40100    0.86110    0.40010    1.000
    C56      C        0.54235    0.85910    0.12590    1.000
    H36      H        0.52680    0.85920    0.07310    1.000
    C57      C        0.52053    0.85741    0.18760    1.000
    C58      C        0.32310    0.84531    0.03328    1.000
    C59      C        0.28511    0.79613    0.01647    1.000
    C60      C        0.25689    0.79829    0.94370    1.000
    C61      C        0.26296    0.84486    0.88320    1.000
    H37      H        0.28640    0.87590    0.89330    1.000
    C62      C        0.23626    0.84580    0.81240    1.000
    H38      H        0.24140    0.87660    0.77300    1.000
    C63      C        0.20044    0.80080    0.79610    1.000
    H39      H        0.18170    0.80190    0.74600    1.000
    C64      C        0.30705    0.74340    0.14850    1.000
    H40      H        0.33150    0.77210    0.15970    1.000
    C65      C        0.27889    0.74788    0.07310    1.000
    C66      C        0.34434    0.93013    0.81810    1.000
    H41      H        0.34910    0.89440    0.78310    1.000
    C67      C        0.32068    0.98817    0.79730    1.000
    H42      H        0.30600    0.00090    0.74600    1.000
    C68      C        0.34666    0.98842    0.92368    1.000
    H43      H        0.35310    0.00260    0.97700    1.000
    C69      C        0.30275    0.09226    0.86980    1.000
    C70      C        0.26665    0.11034    0.81370    1.000
    H44      H        0.25430    0.07790    0.77390    1.000
    C71      C        0.24925    0.17631    0.81710    1.000
    H45      H        0.22480    0.18910    0.77870    1.000
    C72      C        0.26644    0.22418    0.87490    1.000
    C73      C        0.30239    0.20497    0.93067    1.000
    H46      H        0.31460    0.23710    0.97090    1.000
    C74      C        0.32037    0.13925    0.92767    1.000
    H47      H        0.34500    0.12660    0.96570    1.000
    C75      C        0.24733    0.29486    0.87760    1.000
    C76      C        0.20432    0.30153    0.87264    1.000
    H48      H        0.18710    0.26060    0.86620    1.000
    C77      C        0.18621    0.36750    0.87694    1.000
    C78      C        0.21191    0.42673    0.88271    1.000
    H49      H        0.20010    0.47190    0.88670    1.000
    C79      C        0.25463    0.42158    0.88285    1.000
    C80      C        0.27224    0.35462    0.88370    1.000
    H50      H        0.30170    0.34990    0.88850    1.000
    C81      C        0.27979    0.48527    0.87561    1.000
    C82      C        0.31448    0.48133    0.84120    1.000
    H51      H        0.32230    0.43680    0.82430    1.000
    C83      C        0.33774    0.54055    0.83100    1.000
    H52      H        0.36130    0.53660    0.80800    1.000
    C84      C        0.32597    0.60529    0.85500    1.000
    C85      C        0.29136    0.61104    0.88800    1.000
    H53      H        0.28320    0.65590    0.90330    1.000
    C86      C        0.26867    0.55166    0.89860    1.000
    H54      H        0.24520    0.55610    0.92200    1.000
    C87      C        0.37354    0.68165    0.79380    1.000
    H55      H        0.37620    0.65350    0.75040    1.000
    C88      C        0.39203    0.74429    0.81520    1.000
    H56      H        0.41010    0.76820    0.78830    1.000
    C89      C        0.35567    0.72081    0.89910    1.000
    H57      H        0.34290    0.72380    0.94250    1.000
    C90      C        0.14051    0.37463    0.87468    1.000
    C91      C        0.12034    0.43933    0.86220    1.000
    H58      H        0.13600    0.47950    0.85320    1.000
    C92      C        0.07842    0.44719    0.86230    1.000
    H59      H        0.06560    0.49230    0.85360    1.000
    C93      C        0.05502    0.38938    0.87510    1.000
    C94      C        0.07401    0.32395    0.88730    1.000
    H60      H        0.05810    0.28390    0.89570    1.000
    C95      C        0.11604    0.31680    0.88730    1.000
    H61      H        0.12880    0.27160    0.89600    1.000
    C96      C        0.98853    0.45840    0.85110    1.000
    H62      H        0.99760    0.49880    0.82750    1.000
    C97      C        0.95041    0.44810    0.86600    1.000
    H63      H        0.92770    0.48070    0.85410    1.000
    C98      C        0.98629    0.35586    0.90510    1.000
    H64      H        0.99430    0.31040    0.92590    1.000
    Co3      Co       0.09900    0.35351    0.54063    1.000
    O9       O        0.06791    0.41033    0.43933    1.000
    O10      O        0.05137    0.29915    0.44968    1.000
    O11      O        0.14376    0.31929    0.48092    1.000
    O12      O        0.18101    0.40483    0.44110    1.000
    N13      N        0.13942    0.43039    0.60246    1.000
    N14      N        0.17792    0.52525    0.63505    1.000
    N15      N        0.15008    0.16669    0.65190    1.000
    N16      N        0.11903    0.26878    0.61820    1.000
    N17      N        0.48821    0.89904    0.62351    1.000
    N18      N        0.55122    0.88412    0.59912    1.000
    C99      C        0.04899    0.35538    0.41090    1.000
    C100     C        0.02359    0.35695    0.32790    1.000
    C101     C        0.04447    0.35821    0.26660    1.000
    C102     C        0.08949    0.36066    0.28060    1.000
    H65      H        0.10590    0.36190    0.33270    1.000
    C103     C        0.10876    0.36130    0.21980    1.000
    H66      H        0.13860    0.36220    0.22980    1.000
    C104     C        0.08497    0.36060    0.14170    1.000
    H67      H        0.09900    0.36110    0.09990    1.000
    C105     C        0.95765    0.35910    0.37410    1.000
    H68      H        0.97320    0.35920    0.42690    1.000
    C106     C        0.97947    0.35741    0.31240    1.000
    C107     C        0.17690    0.34531    0.46672    1.000
    C108     C        0.21489    0.29613    0.48353    1.000
    C109     C        0.24311    0.29829    0.55630    1.000
    C110     C        0.23704    0.34486    0.61680    1.000
    H69      H        0.21360    0.37590    0.60670    1.000
    C111     C        0.26374    0.34580    0.68760    1.000
    H70      H        0.25860    0.37660    0.72700    1.000
    C112     C        0.29956    0.30080    0.70390    1.000
    H71      H        0.31830    0.30190    0.75400    1.000
    C113     C        0.19295    0.24340    0.35150    1.000
    H72      H        0.16850    0.27210    0.34030    1.000
    C114     C        0.22111    0.24788    0.42690    1.000
    C115     C        0.15566    0.43013    0.68190    1.000
    H73      H        0.15090    0.39440    0.71690    1.000
    C116     C        0.17932    0.48817    0.70270    1.000
    H74      H        0.19400    0.50090    0.75400    1.000
    C117     C        0.15334    0.48842    0.57632    1.000
    H75      H        0.14690    0.50260    0.52300    1.000
    C118     C        0.19725    0.59226    0.63020    1.000
    C119     C        0.23335    0.61034    0.68630    1.000
    H76      H        0.24570    0.57790    0.72610    1.000
    C120     C        0.25075    0.67631    0.68290    1.000
    H77      H        0.27520    0.68910    0.72130    1.000
    C121     C        0.23356    0.72418    0.62510    1.000
    C122     C        0.19761    0.70497    0.56933    1.000
    H78      H        0.18540    0.73710    0.52910    1.000
    C123     C        0.17963    0.63925    0.57233    1.000
    H79      H        0.15500    0.62660    0.53430    1.000
    C124     C        0.25267    0.79486    0.62240    1.000
    C125     C        0.29568    0.80153    0.62736    1.000
    H80      H        0.31290    0.76060    0.63380    1.000
    C126     C        0.31379    0.86750    0.62306    1.000
    C127     C        0.28809    0.92673    0.61729    1.000
    H81      H        0.29990    0.97190    0.61330    1.000
    C128     C        0.24537    0.92158    0.61715    1.000
    C129     C        0.22776    0.85462    0.61630    1.000
    H82      H        0.19830    0.84990    0.61150    1.000
    C130     C        0.22021    0.98527    0.62439    1.000
    C131     C        0.18552    0.98133    0.65880    1.000
    H83      H        0.17770    0.93680    0.67570    1.000
    C132     C        0.16226    0.04055    0.66900    1.000
    H84      H        0.13870    0.03660    0.69200    1.000
    C133     C        0.17403    0.10529    0.64500    1.000
    C134     C        0.20864    0.11104    0.61200    1.000
    H85      H        0.21680    0.15590    0.59670    1.000
    C135     C        0.23133    0.05166    0.60140    1.000
    H86      H        0.25480    0.05610    0.57800    1.000
    C136     C        0.12646    0.18165    0.70620    1.000
    H87      H        0.12380    0.15350    0.74960    1.000
    C137     C        0.10797    0.24429    0.68480    1.000
    H88      H        0.08990    0.26820    0.71170    1.000
    C138     C        0.14433    0.22081    0.60090    1.000
    H89      H        0.15710    0.22380    0.55750    1.000
    C139     C        0.35949    0.87463    0.62532    1.000
    C140     C        0.37966    0.93933    0.63780    1.000
    H90      H        0.36400    0.97950    0.64680    1.000
    C141     C        0.42158    0.94719    0.63770    1.000
    H91      H        0.43440    0.99230    0.64640    1.000
    C142     C        0.44498    0.88938    0.62490    1.000
    C143     C        0.42599    0.82395    0.61270    1.000
    H92      H        0.44190    0.78390    0.60430    1.000
    C144     C        0.38396    0.81680    0.61270    1.000
    H93      H        0.37120    0.77160    0.60400    1.000
    C145     C        0.51147    0.95840    0.64890    1.000
    H94      H        0.50240    0.99880    0.67250    1.000
    C146     C        0.54959    0.94810    0.63400    1.000
    H95      H        0.57230    0.98070    0.64590    1.000
    C147     C        0.51371    0.85586    0.59490    1.000
    H96      H        0.50570    0.81040    0.57410    1.000
    Co4      Co       0.59900    0.85351    0.54063    1.000
    O13      O        0.56791    0.91033    0.43933    1.000
    O14      O        0.55137    0.79915    0.44968    1.000
    O15      O        0.64376    0.81929    0.48092    1.000
    O16      O        0.68101    0.90483    0.44110    1.000
    N19      N        0.63942    0.93039    0.60246    1.000
    N20      N        0.67792    0.02525    0.63505    1.000
    N21      N        0.65008    0.66669    0.65190    1.000
    N22      N        0.61903    0.76878    0.61820    1.000
    N23      N        0.98821    0.39904    0.62351    1.000
    N24      N        0.05122    0.38412    0.59912    1.000
    C148     C        0.54899    0.85538    0.41090    1.000
    C149     C        0.52359    0.85695    0.32790    1.000
    C150     C        0.54447    0.85821    0.26660    1.000
    C151     C        0.58949    0.86066    0.28060    1.000
    H97      H        0.60590    0.86190    0.33270    1.000
    C152     C        0.60876    0.86130    0.21980    1.000
    H98      H        0.63860    0.86220    0.22980    1.000
    C153     C        0.58497    0.86060    0.14170    1.000
    H99      H        0.59900    0.86110    0.09990    1.000
    C154     C        0.45765    0.85910    0.37410    1.000
    H100     H        0.47320    0.85920    0.42690    1.000
    C155     C        0.47947    0.85741    0.31240    1.000
    C156     C        0.67690    0.84531    0.46672    1.000
    C157     C        0.71489    0.79613    0.48353    1.000
    C158     C        0.74311    0.79829    0.55630    1.000
    C159     C        0.73704    0.84486    0.61680    1.000
    H101     H        0.71360    0.87590    0.60670    1.000
    C160     C        0.76374    0.84580    0.68760    1.000
    H102     H        0.75860    0.87660    0.72700    1.000
    C161     C        0.79956    0.80080    0.70390    1.000
    H103     H        0.81830    0.80190    0.75400    1.000
    C162     C        0.69295    0.74340    0.35150    1.000
    H104     H        0.66850    0.77210    0.34030    1.000
    C163     C        0.72111    0.74788    0.42690    1.000
    C164     C        0.65566    0.93013    0.68190    1.000
    H105     H        0.65090    0.89440    0.71690    1.000
    C165     C        0.67932    0.98817    0.70270    1.000
    H106     H        0.69400    0.00090    0.75400    1.000
    C166     C        0.65334    0.98842    0.57632    1.000
    H107     H        0.64690    0.00260    0.52300    1.000
    C167     C        0.69725    0.09226    0.63020    1.000
    C168     C        0.73335    0.11034    0.68630    1.000
    H108     H        0.74570    0.07790    0.72610    1.000
    C169     C        0.75075    0.17631    0.68290    1.000
    H109     H        0.77520    0.18910    0.72130    1.000
    C170     C        0.73356    0.22418    0.62510    1.000
    C171     C        0.69761    0.20497    0.56933    1.000
    H110     H        0.68540    0.23710    0.52910    1.000
    C172     C        0.67963    0.13925    0.57233    1.000
    H111     H        0.65500    0.12660    0.53430    1.000
    C173     C        0.75267    0.29486    0.62240    1.000
    C174     C        0.79568    0.30153    0.62736    1.000
    H112     H        0.81290    0.26060    0.63380    1.000
    C175     C        0.81379    0.36750    0.62306    1.000
    C176     C        0.78809    0.42673    0.61729    1.000
    H113     H        0.79990    0.47190    0.61330    1.000
    C177     C        0.74537    0.42158    0.61715    1.000
    C178     C        0.72776    0.35462    0.61630    1.000
    H114     H        0.69830    0.34990    0.61150    1.000
    C179     C        0.72021    0.48527    0.62439    1.000
    C180     C        0.68552    0.48133    0.65880    1.000
    H115     H        0.67770    0.43680    0.67570    1.000
    C181     C        0.66226    0.54055    0.66900    1.000
    H116     H        0.63870    0.53660    0.69200    1.000
    C182     C        0.67403    0.60529    0.64500    1.000
    C183     C        0.70864    0.61104    0.61200    1.000
    H117     H        0.71680    0.65590    0.59670    1.000
    C184     C        0.73133    0.55166    0.60140    1.000
    H118     H        0.75480    0.55610    0.57800    1.000
    C185     C        0.62646    0.68165    0.70620    1.000
    H119     H        0.62380    0.65350    0.74960    1.000
    C186     C        0.60797    0.74429    0.68480    1.000
    H120     H        0.58990    0.76820    0.71170    1.000
    C187     C        0.64433    0.72081    0.60090    1.000
    H121     H        0.65710    0.72380    0.55750    1.000
    C188     C        0.85949    0.37463    0.62532    1.000
    C189     C        0.87966    0.43933    0.63780    1.000
    H122     H        0.86400    0.47950    0.64680    1.000
    C190     C        0.92158    0.44719    0.63770    1.000
    H123     H        0.93440    0.49230    0.64640    1.000
    C191     C        0.94498    0.38938    0.62490    1.000
    C192     C        0.92599    0.32395    0.61270    1.000
    H124     H        0.94190    0.28390    0.60430    1.000
    C193     C        0.88396    0.31680    0.61270    1.000
    H125     H        0.87120    0.27160    0.60400    1.000
    C194     C        0.01147    0.45840    0.64890    1.000
    H126     H        0.00240    0.49880    0.67250    1.000
    C195     C        0.04959    0.44810    0.63400    1.000
    H127     H        0.07230    0.48070    0.64590    1.000
    C196     C        0.01371    0.35586    0.59490    1.000
    H128     H        0.00570    0.31040    0.57410    1.000
    Co5      Co       0.09900    0.64649    0.04063    1.000
    O17      O        0.06791    0.58967    0.93933    1.000
    O18      O        0.05137    0.70085    0.94968    1.000
    O19      O        0.14376    0.68071    0.98092    1.000
    O20      O        0.18101    0.59517    0.94110    1.000
    N25      N        0.13942    0.56961    0.10246    1.000
    N26      N        0.17792    0.47475    0.13505    1.000
    N27      N        0.15008    0.83331    0.15190    1.000
    N28      N        0.11903    0.73122    0.11820    1.000
    N29      N        0.48821    0.10096    0.12351    1.000
    N30      N        0.55122    0.11588    0.09912    1.000
    C197     C        0.04899    0.64462    0.91090    1.000
    C198     C        0.02359    0.64305    0.82790    1.000
    C199     C        0.04447    0.64179    0.76660    1.000
    C200     C        0.08949    0.63934    0.78060    1.000
    H129     H        0.10590    0.63810    0.83270    1.000
    C201     C        0.10876    0.63870    0.71980    1.000
    H130     H        0.13860    0.63780    0.72980    1.000
    C202     C        0.08497    0.63940    0.64170    1.000
    H131     H        0.09900    0.63890    0.59990    1.000
    C203     C        0.95765    0.64090    0.87410    1.000
    H132     H        0.97320    0.64080    0.92690    1.000
    C204     C        0.97947    0.64259    0.81240    1.000
    C205     C        0.17690    0.65469    0.96672    1.000
    C206     C        0.21489    0.70387    0.98353    1.000
    C207     C        0.24311    0.70171    0.05630    1.000
    C208     C        0.23704    0.65514    0.11680    1.000
    H133     H        0.21360    0.62410    0.10670    1.000
    C209     C        0.26374    0.65420    0.18760    1.000
    H134     H        0.25860    0.62340    0.22700    1.000
    C210     C        0.29956    0.69920    0.20390    1.000
    H135     H        0.31830    0.69810    0.25400    1.000
    C211     C        0.19295    0.75660    0.85150    1.000
    H136     H        0.16850    0.72790    0.84030    1.000
    C212     C        0.22111    0.75212    0.92690    1.000
    C213     C        0.15566    0.56987    0.18190    1.000
    H137     H        0.15090    0.60560    0.21690    1.000
    C214     C        0.17932    0.51183    0.20270    1.000
    H138     H        0.19400    0.49910    0.25400    1.000
    C215     C        0.15334    0.51158    0.07632    1.000
    H139     H        0.14690    0.49740    0.02300    1.000
    C216     C        0.19725    0.40774    0.13020    1.000
    C217     C        0.23335    0.38966    0.18630    1.000
    H140     H        0.24570    0.42210    0.22610    1.000
    C218     C        0.25075    0.32369    0.18290    1.000
    H141     H        0.27520    0.31090    0.22130    1.000
    C219     C        0.23356    0.27582    0.12510    1.000
    C220     C        0.19761    0.29503    0.06933    1.000
    H142     H        0.18540    0.26290    0.02910    1.000
    C221     C        0.17963    0.36075    0.07233    1.000
    H143     H        0.15500    0.37340    0.03430    1.000
    C222     C        0.25267    0.20514    0.12240    1.000
    C223     C        0.29568    0.19847    0.12736    1.000
    H144     H        0.31290    0.23940    0.13380    1.000
    C224     C        0.31379    0.13250    0.12306    1.000
    C225     C        0.28809    0.07327    0.11729    1.000
    H145     H        0.29990    0.02810    0.11330    1.000
    C226     C        0.24537    0.07842    0.11715    1.000
    C227     C        0.22776    0.14538    0.11630    1.000
    H146     H        0.19830    0.15010    0.11150    1.000
    C228     C        0.22021    0.01473    0.12439    1.000
    C229     C        0.18552    0.01867    0.15880    1.000
    H147     H        0.17770    0.06320    0.17570    1.000
    C230     C        0.16226    0.95945    0.16900    1.000
    H148     H        0.13870    0.96340    0.19200    1.000
    C231     C        0.17403    0.89471    0.14500    1.000
    C232     C        0.20864    0.88896    0.11200    1.000
    H149     H        0.21680    0.84410    0.09670    1.000
    C233     C        0.23133    0.94834    0.10140    1.000
    H150     H        0.25480    0.94390    0.07800    1.000
    C234     C        0.12646    0.81835    0.20620    1.000
    H151     H        0.12380    0.84650    0.24960    1.000
    C235     C        0.10797    0.75571    0.18480    1.000
    H152     H        0.08990    0.73180    0.21170    1.000
    C236     C        0.14433    0.77919    0.10090    1.000
    H153     H        0.15710    0.77620    0.05750    1.000
    C237     C        0.35949    0.12537    0.12532    1.000
    C238     C        0.37966    0.06067    0.13780    1.000
    H154     H        0.36400    0.02050    0.14680    1.000
    C239     C        0.42158    0.05281    0.13770    1.000
    H155     H        0.43440    0.00770    0.14640    1.000
    C240     C        0.44498    0.11062    0.12490    1.000
    C241     C        0.42599    0.17605    0.11270    1.000
    H156     H        0.44190    0.21610    0.10430    1.000
    C242     C        0.38396    0.18320    0.11270    1.000
    H157     H        0.37120    0.22840    0.10400    1.000
    C243     C        0.51147    0.04160    0.14890    1.000
    H158     H        0.50240    0.00120    0.17250    1.000
    C244     C        0.54959    0.05190    0.13400    1.000
    H159     H        0.57230    0.01930    0.14590    1.000
    C245     C        0.51371    0.14414    0.09490    1.000
    H160     H        0.50570    0.18960    0.07410    1.000
    Co6      Co       0.59900    0.14649    0.04063    1.000
    O21      O        0.56791    0.08967    0.93933    1.000
    O22      O        0.55137    0.20085    0.94968    1.000
    O23      O        0.64376    0.18071    0.98092    1.000
    O24      O        0.68101    0.09517    0.94110    1.000
    N31      N        0.63942    0.06961    0.10246    1.000
    N32      N        0.67792    0.97475    0.13505    1.000
    N33      N        0.65008    0.33331    0.15190    1.000
    N34      N        0.61903    0.23122    0.11820    1.000
    N35      N        0.98821    0.60096    0.12351    1.000
    N36      N        0.05122    0.61588    0.09912    1.000
    C246     C        0.54899    0.14462    0.91090    1.000
    C247     C        0.52359    0.14305    0.82790    1.000
    C248     C        0.54447    0.14179    0.76660    1.000
    C249     C        0.58949    0.13934    0.78060    1.000
    H161     H        0.60590    0.13810    0.83270    1.000
    C250     C        0.60876    0.13870    0.71980    1.000
    H162     H        0.63860    0.13780    0.72980    1.000
    C251     C        0.58497    0.13940    0.64170    1.000
    H163     H        0.59900    0.13890    0.59990    1.000
    C252     C        0.45765    0.14090    0.87410    1.000
    H164     H        0.47320    0.14080    0.92690    1.000
    C253     C        0.47947    0.14259    0.81240    1.000
    C254     C        0.67690    0.15469    0.96672    1.000
    C255     C        0.71489    0.20387    0.98353    1.000
    C256     C        0.74311    0.20171    0.05630    1.000
    C257     C        0.73704    0.15514    0.11680    1.000
    H165     H        0.71360    0.12410    0.10670    1.000
    C258     C        0.76374    0.15420    0.18760    1.000
    H166     H        0.75860    0.12340    0.22700    1.000
    C259     C        0.79956    0.19920    0.20390    1.000
    H167     H        0.81830    0.19810    0.25400    1.000
    C260     C        0.69295    0.25660    0.85150    1.000
    H168     H        0.66850    0.22790    0.84030    1.000
    C261     C        0.72111    0.25212    0.92690    1.000
    C262     C        0.65566    0.06987    0.18190    1.000
    H169     H        0.65090    0.10560    0.21690    1.000
    C263     C        0.67932    0.01183    0.20270    1.000
    H170     H        0.69400    0.99910    0.25400    1.000
    C264     C        0.65334    0.01158    0.07632    1.000
    H171     H        0.64690    0.99740    0.02300    1.000
    C265     C        0.69725    0.90774    0.13020    1.000
    C266     C        0.73335    0.88966    0.18630    1.000
    H172     H        0.74570    0.92210    0.22610    1.000
    C267     C        0.75075    0.82369    0.18290    1.000
    H173     H        0.77520    0.81090    0.22130    1.000
    C268     C        0.73356    0.77582    0.12510    1.000
    C269     C        0.69761    0.79503    0.06933    1.000
    H174     H        0.68540    0.76290    0.02910    1.000
    C270     C        0.67963    0.86075    0.07233    1.000
    H175     H        0.65500    0.87340    0.03430    1.000
    C271     C        0.75267    0.70514    0.12240    1.000
    C272     C        0.79568    0.69847    0.12736    1.000
    H176     H        0.81290    0.73940    0.13380    1.000
    C273     C        0.81379    0.63250    0.12306    1.000
    C274     C        0.78809    0.57327    0.11729    1.000
    H177     H        0.79990    0.52810    0.11330    1.000
    C275     C        0.74537    0.57842    0.11715    1.000
    C276     C        0.72776    0.64538    0.11630    1.000
    H178     H        0.69830    0.65010    0.11150    1.000
    C277     C        0.72021    0.51473    0.12439    1.000
    C278     C        0.68552    0.51867    0.15880    1.000
    H179     H        0.67770    0.56320    0.17570    1.000
    C279     C        0.66226    0.45945    0.16900    1.000
    H180     H        0.63870    0.46340    0.19200    1.000
    C280     C        0.67403    0.39471    0.14500    1.000
    C281     C        0.70864    0.38896    0.11200    1.000
    H181     H        0.71680    0.34410    0.09670    1.000
    C282     C        0.73133    0.44834    0.10140    1.000
    H182     H        0.75480    0.44390    0.07800    1.000
    C283     C        0.62646    0.31835    0.20620    1.000
    H183     H        0.62380    0.34650    0.24960    1.000
    C284     C        0.60797    0.25571    0.18480    1.000
    H184     H        0.58990    0.23180    0.21170    1.000
    C285     C        0.64433    0.27919    0.10090    1.000
    H185     H        0.65710    0.27620    0.05750    1.000
    C286     C        0.85949    0.62537    0.12532    1.000
    C287     C        0.87966    0.56067    0.13780    1.000
    H186     H        0.86400    0.52050    0.14680    1.000
    C288     C        0.92158    0.55281    0.13770    1.000
    H187     H        0.93440    0.50770    0.14640    1.000
    C289     C        0.94498    0.61062    0.12490    1.000
    C290     C        0.92599    0.67605    0.11270    1.000
    H188     H        0.94190    0.71610    0.10430    1.000
    C291     C        0.88396    0.68320    0.11270    1.000
    H189     H        0.87120    0.72840    0.10400    1.000
    C292     C        0.01147    0.54160    0.14890    1.000
    H190     H        0.00240    0.50120    0.17250    1.000
    C293     C        0.04959    0.55190    0.13400    1.000
    H191     H        0.07230    0.51930    0.14590    1.000
    C294     C        0.01371    0.64414    0.09490    1.000
    H192     H        0.00570    0.68960    0.07410    1.000
    Co7      Co       0.90100    0.64649    0.45937    1.000
    O25      O        0.93209    0.58967    0.56067    1.000
    O26      O        0.94863    0.70085    0.55032    1.000
    O27      O        0.85624    0.68071    0.51908    1.000
    O28      O        0.81899    0.59517    0.55890    1.000
    N37      N        0.86058    0.56961    0.39754    1.000
    N38      N        0.82208    0.47475    0.36495    1.000
    N39      N        0.84992    0.83331    0.34810    1.000
    N40      N        0.88097    0.73122    0.38180    1.000
    N41      N        0.51179    0.10096    0.37649    1.000
    N42      N        0.44878    0.11588    0.40088    1.000
    C295     C        0.95101    0.64462    0.58910    1.000
    C296     C        0.97641    0.64305    0.67210    1.000
    C297     C        0.95553    0.64179    0.73340    1.000
    C298     C        0.91051    0.63934    0.71940    1.000
    H193     H        0.89410    0.63810    0.66730    1.000
    C299     C        0.89124    0.63870    0.78020    1.000
    H194     H        0.86140    0.63780    0.77020    1.000
    C300     C        0.91503    0.63940    0.85830    1.000
    H195     H        0.90100    0.63890    0.90010    1.000
    C301     C        0.04235    0.64090    0.62590    1.000
    H196     H        0.02680    0.64080    0.57310    1.000
    C302     C        0.02053    0.64259    0.68760    1.000
    C303     C        0.82310    0.65469    0.53328    1.000
    C304     C        0.78511    0.70387    0.51647    1.000
    C305     C        0.75689    0.70171    0.44370    1.000
    C306     C        0.76296    0.65514    0.38320    1.000
    H197     H        0.78640    0.62410    0.39330    1.000
    C307     C        0.73626    0.65420    0.31240    1.000
    H198     H        0.74140    0.62340    0.27300    1.000
    C308     C        0.70044    0.69920    0.29610    1.000
    H199     H        0.68170    0.69810    0.24600    1.000
    C309     C        0.80705    0.75660    0.64850    1.000
    H200     H        0.83150    0.72790    0.65970    1.000
    C310     C        0.77889    0.75212    0.57310    1.000
    C311     C        0.84434    0.56987    0.31810    1.000
    H201     H        0.84910    0.60560    0.28310    1.000
    C312     C        0.82068    0.51183    0.29730    1.000
    H202     H        0.80600    0.49910    0.24600    1.000
    C313     C        0.84666    0.51158    0.42368    1.000
    H203     H        0.85310    0.49740    0.47700    1.000
    C314     C        0.80275    0.40774    0.36980    1.000
    C315     C        0.76665    0.38966    0.31370    1.000
    H204     H        0.75430    0.42210    0.27390    1.000
    C316     C        0.74925    0.32369    0.31710    1.000
    H205     H        0.72480    0.31090    0.27870    1.000
    C317     C        0.76644    0.27582    0.37490    1.000
    C318     C        0.80239    0.29503    0.43067    1.000
    H206     H        0.81460    0.26290    0.47090    1.000
    C319     C        0.82037    0.36075    0.42767    1.000
    H207     H        0.84500    0.37340    0.46570    1.000
    C320     C        0.74733    0.20514    0.37760    1.000
    C321     C        0.70432    0.19847    0.37264    1.000
    H208     H        0.68710    0.23940    0.36620    1.000
    C322     C        0.68621    0.13250    0.37694    1.000
    C323     C        0.71191    0.07327    0.38271    1.000
    H209     H        0.70010    0.02810    0.38670    1.000
    C324     C        0.75463    0.07842    0.38285    1.000
    C325     C        0.77224    0.14538    0.38370    1.000
    H210     H        0.80170    0.15010    0.38850    1.000
    C326     C        0.77979    0.01473    0.37561    1.000
    C327     C        0.81448    0.01867    0.34120    1.000
    H211     H        0.82230    0.06320    0.32430    1.000
    C328     C        0.83774    0.95945    0.33100    1.000
    H212     H        0.86130    0.96340    0.30800    1.000
    C329     C        0.82597    0.89471    0.35500    1.000
    C330     C        0.79136    0.88896    0.38800    1.000
    H213     H        0.78320    0.84410    0.40330    1.000
    C331     C        0.76867    0.94834    0.39860    1.000
    H214     H        0.74520    0.94390    0.42200    1.000
    C332     C        0.87354    0.81835    0.29380    1.000
    H215     H        0.87620    0.84650    0.25040    1.000
    C333     C        0.89203    0.75571    0.31520    1.000
    H216     H        0.91010    0.73180    0.28830    1.000
    C334     C        0.85567    0.77919    0.39910    1.000
    H217     H        0.84290    0.77620    0.44250    1.000
    C335     C        0.64051    0.12537    0.37468    1.000
    C336     C        0.62034    0.06067    0.36220    1.000
    H218     H        0.63600    0.02050    0.35320    1.000
    C337     C        0.57842    0.05281    0.36230    1.000
    H219     H        0.56560    0.00770    0.35360    1.000
    C338     C        0.55502    0.11062    0.37510    1.000
    C339     C        0.57401    0.17605    0.38730    1.000
    H220     H        0.55810    0.21610    0.39570    1.000
    C340     C        0.61604    0.18320    0.38730    1.000
    H221     H        0.62880    0.22840    0.39600    1.000
    C341     C        0.48853    0.04160    0.35110    1.000
    H222     H        0.49760    0.00120    0.32750    1.000
    C342     C        0.45041    0.05190    0.36600    1.000
    H223     H        0.42770    0.01930    0.35410    1.000
    C343     C        0.48629    0.14414    0.40510    1.000
    H224     H        0.49430    0.18960    0.42590    1.000
    Co8      Co       0.40100    0.14649    0.45937    1.000
    O29      O        0.43209    0.08967    0.56067    1.000
    O30      O        0.44863    0.20085    0.55032    1.000
    O31      O        0.35624    0.18071    0.51908    1.000
    O32      O        0.31899    0.09517    0.55890    1.000
    N43      N        0.36058    0.06961    0.39754    1.000
    N44      N        0.32208    0.97475    0.36495    1.000
    N45      N        0.34992    0.33331    0.34810    1.000
    N46      N        0.38097    0.23122    0.38180    1.000
    N47      N        0.01179    0.60096    0.37649    1.000
    N48      N        0.94878    0.61588    0.40088    1.000
    C344     C        0.45101    0.14462    0.58910    1.000
    C345     C        0.47641    0.14305    0.67210    1.000
    C346     C        0.45553    0.14179    0.73340    1.000
    C347     C        0.41051    0.13934    0.71940    1.000
    H225     H        0.39410    0.13810    0.66730    1.000
    C348     C        0.39124    0.13870    0.78020    1.000
    H226     H        0.36140    0.13780    0.77020    1.000
    C349     C        0.41503    0.13940    0.85830    1.000
    H227     H        0.40100    0.13890    0.90010    1.000
    C350     C        0.54235    0.14090    0.62590    1.000
    H228     H        0.52680    0.14080    0.57310    1.000
    C351     C        0.52053    0.14259    0.68760    1.000
    C352     C        0.32310    0.15469    0.53328    1.000
    C353     C        0.28511    0.20387    0.51647    1.000
    C354     C        0.25689    0.20171    0.44370    1.000
    C355     C        0.26296    0.15514    0.38320    1.000
    H229     H        0.28640    0.12410    0.39330    1.000
    C356     C        0.23626    0.15420    0.31240    1.000
    H230     H        0.24140    0.12340    0.27300    1.000
    C357     C        0.20044    0.19920    0.29610    1.000
    H231     H        0.18170    0.19810    0.24600    1.000
    C358     C        0.30705    0.25660    0.64850    1.000
    H232     H        0.33150    0.22790    0.65970    1.000
    C359     C        0.27889    0.25212    0.57310    1.000
    C360     C        0.34434    0.06987    0.31810    1.000
    H233     H        0.34910    0.10560    0.28310    1.000
    C361     C        0.32068    0.01183    0.29730    1.000
    H234     H        0.30600    0.99910    0.24600    1.000
    C362     C        0.34666    0.01158    0.42368    1.000
    H235     H        0.35310    0.99740    0.47700    1.000
    C363     C        0.30275    0.90774    0.36980    1.000
    C364     C        0.26665    0.88966    0.31370    1.000
    H236     H        0.25430    0.92210    0.27390    1.000
    C365     C        0.24925    0.82369    0.31710    1.000
    H237     H        0.22480    0.81090    0.27870    1.000
    C366     C        0.26644    0.77582    0.37490    1.000
    C367     C        0.30239    0.79503    0.43067    1.000
    H238     H        0.31460    0.76290    0.47090    1.000
    C368     C        0.32037    0.86075    0.42767    1.000
    H239     H        0.34500    0.87340    0.46570    1.000
    C369     C        0.24733    0.70514    0.37760    1.000
    C370     C        0.20432    0.69847    0.37264    1.000
    H240     H        0.18710    0.73940    0.36620    1.000
    C371     C        0.18621    0.63250    0.37694    1.000
    C372     C        0.21191    0.57327    0.38271    1.000
    H241     H        0.20010    0.52810    0.38670    1.000
    C373     C        0.25463    0.57842    0.38285    1.000
    C374     C        0.27224    0.64538    0.38370    1.000
    H242     H        0.30170    0.65010    0.38850    1.000
    C375     C        0.27979    0.51473    0.37561    1.000
    C376     C        0.31448    0.51867    0.34120    1.000
    H243     H        0.32230    0.56320    0.32430    1.000
    C377     C        0.33774    0.45945    0.33100    1.000
    H244     H        0.36130    0.46340    0.30800    1.000
    C378     C        0.32597    0.39471    0.35500    1.000
    C379     C        0.29136    0.38896    0.38800    1.000
    H245     H        0.28320    0.34410    0.40330    1.000
    C380     C        0.26867    0.44834    0.39860    1.000
    H246     H        0.24520    0.44390    0.42200    1.000
    C381     C        0.37354    0.31835    0.29380    1.000
    H247     H        0.37620    0.34650    0.25040    1.000
    C382     C        0.39203    0.25571    0.31520    1.000
    H248     H        0.41010    0.23180    0.28830    1.000
    C383     C        0.35567    0.27919    0.39910    1.000
    H249     H        0.34290    0.27620    0.44250    1.000
    C384     C        0.14051    0.62537    0.37468    1.000
    C385     C        0.12034    0.56067    0.36220    1.000
    H250     H        0.13600    0.52050    0.35320    1.000
    C386     C        0.07842    0.55281    0.36230    1.000
    H251     H        0.06560    0.50770    0.35360    1.000
    C387     C        0.05502    0.61062    0.37510    1.000
    C388     C        0.07401    0.67605    0.38730    1.000
    H252     H        0.05810    0.71610    0.39570    1.000
    C389     C        0.11604    0.68320    0.38730    1.000
    H253     H        0.12880    0.72840    0.39600    1.000
    C390     C        0.98853    0.54160    0.35110    1.000
    H254     H        0.99760    0.50120    0.32750    1.000
    C391     C        0.95041    0.55190    0.36600    1.000
    H255     H        0.92770    0.51930    0.35410    1.000
    C392     C        0.98629    0.64414    0.40510    1.000
    H256     H        0.99430    0.68960    0.42590    1.000
