# CIF file generated by openbabel 3.1.0, see https://openbabel.org
data_I
_chemical_name_common 'image0'
_cell_length_a 15.97
_cell_length_b 28.166
_cell_length_c 23.583
_cell_angle_alpha 90
_cell_angle_beta 108.092
_cell_angle_gamma 90
_space_group_name_H-M_alt 'P 1'
_space_group_name_Hall 'P 1'
loop_
    _symmetry_equiv_pos_as_xyz
    x,y,z
loop_
    _atom_site_label
    _atom_site_type_symbol
    _atom_site_fract_x
    _atom_site_fract_y
    _atom_site_fract_z
    _atom_site_occupancy
    C1       C        0.33180    0.03100    0.76900    1.000
    C2       C        0.36920    0.99270    0.73990    1.000
    C3       C        0.38040    0.94670    0.76310    1.000
    H1       H        0.36880    0.94020    0.79860    1.000
    C4       C        0.38910    0.00100    0.68930    1.000
    H2       H        0.38460    0.03180    0.67460    1.000
    C5       C        0.40840    0.91110    0.73380    1.000
    H3       H        0.41810    0.88070    0.75000    1.000
    C6       C        0.41580    0.96550    0.65850    1.000
    H4       H        0.42920    0.97210    0.62360    1.000
    C7       C        0.42210    0.92070    0.68040    1.000
    C8       C        0.43660    0.83810    0.65850    1.000
    C9       C        0.35470    0.82000    0.65180    1.000
    H5       H        0.30520    0.83930    0.63960    1.000
    C10      C        0.50910    0.80920    0.67490    1.000
    H6       H        0.56460    0.82150    0.67860    1.000
    C11      C        0.34680    0.77300    0.66330    1.000
    H7       H        0.29120    0.76050    0.65860    1.000
    C12      C        0.49930    0.76210    0.68600    1.000
    H8       H        0.54840    0.74230    0.69670    1.000
    C13      C        0.41880    0.74390    0.68150    1.000
    C14      C        0.40880    0.69340    0.69860    1.000
    C15      C        0.29610    0.20630    0.73880    1.000
    C16      C        0.22950    0.24300    0.71070    1.000
    C17      C        0.25600    0.29010    0.71480    1.000
    H9       H        0.31450    0.29790    0.73420    1.000
    C18      C        0.14290    0.23110    0.68060    1.000
    H10      H        0.12540    0.19950    0.67780    1.000
    C19      C        0.19480    0.32590    0.68960    1.000
    H11      H        0.21110    0.35770    0.69230    1.000
    C20      C        0.08280    0.26600    0.65500    1.000
    H12      H        0.02490    0.25810    0.63410    1.000
    C21      C        0.10890    0.31190    0.66040    1.000
    C22      C        0.00750    0.35500    0.58090    1.000
    C23      C        0.93950    0.38760    0.56820    1.000
    H13      H        0.92650    0.40410    0.59860    1.000
    C24      C        0.03150    0.33340    0.53530    1.000
    H14      H        0.07930    0.31280    0.54420    1.000
    C25      C        0.89190    0.39510    0.51000    1.000
    H15      H        0.84400    0.41560    0.50090    1.000
    C26      C        0.98380    0.34270    0.47680    1.000
    H16      H        0.99980    0.32840    0.44620    1.000
    C27      C        0.91390    0.37250    0.46360    1.000
    C28      C        0.85430    0.37960    0.40170    1.000
    C29      C        0.41350    0.11670    0.63570    1.000
    C30      C        0.32640    0.10610    0.59090    1.000
    C31      C        0.25050    0.12190    0.60060    1.000
    H17      H        0.25430    0.13820    0.63560    1.000
    C32      C        0.31940    0.08140    0.53950    1.000
    H18      H        0.37010    0.07040    0.53250    1.000
    C33      C        0.16790    0.11400    0.55890    1.000
    H19      H        0.11720    0.12520    0.56570    1.000
    C34      C        0.23790    0.07260    0.49770    1.000
    H20      H        0.23450    0.05560    0.46330    1.000
    C35      C        0.16260    0.08910    0.50730    1.000
    C36      C        0.04860    0.04480    0.43640    1.000
    C37      C        0.97930    0.05140    0.38410    1.000
    H21      H        0.96020    0.08170    0.37070    1.000
    C38      C        0.07970    0.00110    0.45480    1.000
    H22      H        0.12620    0.99700    0.48980    1.000
    C39      C        0.93950    0.01180    0.35250    1.000
    H23      H        0.89110    0.01580    0.31860    1.000
    C40      C        0.04000    0.96160    0.41970    1.000
    H24      H        0.06250    0.93150    0.43120    1.000
    C41      C        0.96970    0.96660    0.36970    1.000
    C42      C        0.92950    0.92570    0.33240    1.000
    C43      C        0.77230    0.21980    0.68410    1.000
    C44      C        0.75760    0.27110    0.66790    1.000
    C45      C        0.67270    0.28790    0.63930    1.000
    H25      H        0.62540    0.26690    0.63050    1.000
    C46      C        0.82670    0.30270    0.67870    1.000
    H26      H        0.88410    0.29180    0.69530    1.000
    C47      C        0.65770    0.33480    0.62380    1.000
    H27      H        0.60080    0.34530    0.60410    1.000
    C48      C        0.81220    0.35010    0.66520    1.000
    H28      H        0.85940    0.37110    0.67470    1.000
    C49      C        0.72770    0.36690    0.63750    1.000
    C50      C        0.76330    0.44940    0.63830    1.000
    C51      C        0.77570    0.47860    0.59540    1.000
    H29      H        0.74850    0.47200    0.55520    1.000
    C52      C        0.79810    0.45980    0.69740    1.000
    H30      H        0.78640    0.44050    0.72600    1.000
    C53      C        0.82940    0.51810    0.61230    1.000
    H31      H        0.83970    0.53740    0.58310    1.000
    C54      C        0.85120    0.49950    0.71440    1.000
    H32      H        0.87610    0.50640    0.75470    1.000
    C55      C        0.86780    0.52930    0.67190    1.000
    C56      C        0.92880    0.57090    0.68890    1.000
    C57      C        0.73960    0.05780    0.66330    1.000
    C58      C        0.72850    0.00580    0.65410    1.000
    C59      C        0.64470    0.98660    0.63650    1.000
    H33      H        0.59580    0.00610    0.63070    1.000
    C60      C        0.80110    0.97610    0.66360    1.000
    H34      H        0.85740    0.98910    0.67470    1.000
    C61      C        0.63430    0.93860    0.62770    1.000
    H35      H        0.57790    0.92580    0.61470    1.000
    C62      C        0.79090    0.92800    0.65690    1.000
    H36      H        0.83980    0.90820    0.66490    1.000
    C63      C        0.70600    0.90920    0.63780    1.000
    C64      C        0.75260    0.82690    0.64050    1.000
    C65      C        0.78100    0.81270    0.69780    1.000
    H37      H        0.76410    0.82860    0.72700    1.000
    C66      C        0.78110    0.80680    0.59820    1.000
    H38      H        0.76360    0.81870    0.55950    1.000
    C67      C        0.83680    0.77290    0.71210    1.000
    H39      H        0.85590    0.76200    0.75130    1.000
    C68      C        0.83680    0.76820    0.61330    1.000
    H40      H        0.85680    0.75410    0.58420    1.000
    C69      C        0.86350    0.75010    0.66990    1.000
    C70      C        0.92320    0.70850    0.68550    1.000
    C71      C        0.79620    0.12960    0.80850    1.000
    C72      C        0.83460    0.12420    0.87520    1.000
    C73      C        0.78100    0.13260    0.91230    1.000
    H41      H        0.72240    0.14150    0.89580    1.000
    C74      C        0.91950    0.11010    0.90080    1.000
    H42      H        0.95540    0.10390    0.87720    1.000
    C75      C        0.95310    0.10480    0.96420    1.000
    H43      H        0.01050    0.09420    0.98150    1.000
    C76      C        0.81830    0.12710    0.97470    1.000
    H44      H        0.78390    0.13200    0.99950    1.000
    C77      C        0.90410    0.11480    0.99830    1.000
    C78      C        0.94750    0.07070    0.09060    1.000
    C79      C        0.88670    0.03500    0.07060    1.000
    H45      H        0.84340    0.03740    0.03370    1.000
    C80      C        0.01060    0.06770    0.14490    1.000
    H46      H        0.04830    0.09310    0.15950    1.000
    C81      C        0.01790    0.02690    0.17770    1.000
    H47      H        0.06460    0.02340    0.21270    1.000
    C82      C        0.89120    0.99590    0.10610    1.000
    H48      H        0.84900    0.97210    0.09380    1.000
    C83      C        0.95700    0.99130    0.15930    1.000
    C84      C        0.96030    0.94950    0.19860    1.000
    Dy1      Dy       0.22134    0.10491    0.79003    1.000
    Dy2      Dy       0.44000    0.14055    0.78160    1.000
    Dy3      Dy       0.60670    0.14227    0.69583    1.000
    Dy4      Dy       0.91402    0.13029    0.70754    1.000
    O1       O        0.28260    0.02235    0.79960    1.000
    O2       O        0.34740    0.07418    0.75810    1.000
    O3       O        0.44810    0.88562    0.64730    1.000
    O4       O        0.47670    0.67167    0.72700    1.000
    O5       O        0.33220    0.67560    0.68520    1.000
    O6       O        0.27490    0.16224    0.73780    1.000
    O7       O        0.37510    0.21765    0.76100    1.000
    O8       O        0.05040    0.34940    0.64000    1.000
    O9       O        0.87220    0.36181    0.35700    1.000
    O10      O        0.78540    0.40427    0.39350    1.000
    O11      O        0.41540    0.14127    0.68110    1.000
    O12      O        0.48320    0.10283    0.62640    1.000
    O13      O        0.07960    0.08640    0.46690    1.000
    O14      O        0.97600    0.88970    0.33400    1.000
    O15      O        0.85080    0.92850    0.30020    1.000
    O16      O        0.70610    0.19470    0.68070    1.000
    O17      O        0.85020    0.20454    0.69970    1.000
    O18      O        0.70550    0.41215    0.61740    1.000
    O19      O        0.94800    0.58809    0.74160    1.000
    O20      O        0.96150    0.58662    0.65150    1.000
    O21      O        0.67680    0.07979    0.67320    1.000
    O22      O        0.80850    0.07741    0.66020    1.000
    O23      O        0.68770    0.86223    0.62380    1.000
    O24      O        0.94310    0.69098    0.73763    1.000
    O25      O        0.95740    0.69285    0.64840    1.000
    O26      O        0.84820    0.12690    0.77950    1.000
    O27      O        0.71600    0.13739    0.78830    1.000
    O28      O        0.94430    0.11330    0.05870    1.000
    O29      O        0.89190    0.92464    0.18680    1.000
    O30      O        0.02840    0.94085    0.24070    1.000
    C85      C        0.16820    0.53100    0.73100    1.000
    C86      C        0.13080    0.49270    0.76010    1.000
    C87      C        0.11960    0.44670    0.73690    1.000
    H49      H        0.13120    0.44020    0.70140    1.000
    C88      C        0.11090    0.50100    0.81070    1.000
    H50      H        0.11540    0.53180    0.82540    1.000
    C89      C        0.09160    0.41110    0.76620    1.000
    H51      H        0.08190    0.38070    0.75000    1.000
    C90      C        0.08420    0.46550    0.84150    1.000
    H52      H        0.07080    0.47210    0.87640    1.000
    C91      C        0.07790    0.42070    0.81960    1.000
    C92      C        0.06340    0.33810    0.84150    1.000
    C93      C        0.14530    0.32000    0.84820    1.000
    H53      H        0.19480    0.33930    0.86040    1.000
    C94      C        0.99090    0.30920    0.82510    1.000
    H54      H        0.93540    0.32150    0.82140    1.000
    C95      C        0.15320    0.27300    0.83670    1.000
    H55      H        0.20880    0.26050    0.84140    1.000
    C96      C        0.00070    0.26210    0.81400    1.000
    H56      H        0.95160    0.24230    0.80330    1.000
    C97      C        0.08120    0.24390    0.81850    1.000
    C98      C        0.09120    0.19340    0.80140    1.000
    C99      C        0.20390    0.70630    0.76120    1.000
    C100     C        0.27050    0.74300    0.78930    1.000
    C101     C        0.24400    0.79010    0.78520    1.000
    H57      H        0.18550    0.79790    0.76580    1.000
    C102     C        0.35710    0.73110    0.81940    1.000
    H58      H        0.37460    0.69950    0.82220    1.000
    C103     C        0.30520    0.82590    0.81040    1.000
    H59      H        0.28890    0.85770    0.80770    1.000
    C104     C        0.41720    0.76600    0.84500    1.000
    H60      H        0.47510    0.75810    0.86590    1.000
    C105     C        0.39110    0.81190    0.83960    1.000
    C106     C        0.49250    0.85500    0.91910    1.000
    C107     C        0.56050    0.88760    0.93180    1.000
    H61      H        0.57350    0.90410    0.90140    1.000
    C108     C        0.46850    0.83340    0.96470    1.000
    H62      H        0.42070    0.81280    0.95580    1.000
    C109     C        0.60810    0.89510    0.99000    1.000
    H63      H        0.65600    0.91560    0.99910    1.000
    C110     C        0.51620    0.84270    0.02320    1.000
    H64      H        0.50020    0.82840    0.05380    1.000
    C111     C        0.58610    0.87250    0.03640    1.000
    C112     C        0.64570    0.87960    0.09830    1.000
    C113     C        0.08650    0.61670    0.86430    1.000
    C114     C        0.17360    0.60610    0.90910    1.000
    C115     C        0.24950    0.62190    0.89940    1.000
    H65      H        0.24570    0.63820    0.86440    1.000
    C116     C        0.18060    0.58140    0.96050    1.000
    H66      H        0.12990    0.57040    0.96750    1.000
    C117     C        0.33210    0.61400    0.94110    1.000
    H67      H        0.38280    0.62520    0.93430    1.000
    C118     C        0.26210    0.57260    0.00230    1.000
    H68      H        0.26550    0.55560    0.03670    1.000
    C119     C        0.33740    0.58910    0.99270    1.000
    C120     C        0.45140    0.54480    0.06360    1.000
    C121     C        0.52070    0.55140    0.11590    1.000
    H69      H        0.53980    0.58170    0.12930    1.000
    C122     C        0.42030    0.50110    0.04520    1.000
    H70      H        0.37380    0.49700    0.01020    1.000
    C123     C        0.56050    0.51180    0.14750    1.000
    H71      H        0.60890    0.51580    0.18140    1.000
    C124     C        0.46000    0.46160    0.08030    1.000
    H72      H        0.43750    0.43150    0.06880    1.000
    C125     C        0.53030    0.46660    0.13030    1.000
    C126     C        0.57050    0.42570    0.16760    1.000
    C127     C        0.72770    0.71980    0.81590    1.000
    C128     C        0.74240    0.77110    0.83210    1.000
    C129     C        0.82730    0.78790    0.86070    1.000
    H73      H        0.87460    0.76690    0.86950    1.000
    C130     C        0.67330    0.80270    0.82130    1.000
    H74      H        0.61590    0.79180    0.80470    1.000
    C131     C        0.84230    0.83480    0.87620    1.000
    H75      H        0.89920    0.84530    0.89590    1.000
    C132     C        0.68780    0.85010    0.83480    1.000
    H76      H        0.64060    0.87110    0.82530    1.000
    C133     C        0.77230    0.86690    0.86250    1.000
    C134     C        0.73670    0.94940    0.86170    1.000
    C135     C        0.72430    0.97860    0.90460    1.000
    H77      H        0.75150    0.97200    0.94480    1.000
    C136     C        0.70190    0.95980    0.80260    1.000
    H78      H        0.71360    0.94050    0.77400    1.000
    C137     C        0.67060    0.01810    0.88770    1.000
    H79      H        0.66030    0.03740    0.91690    1.000
    C138     C        0.64880    0.99950    0.78560    1.000
    H80      H        0.62390    0.00640    0.74530    1.000
    C139     C        0.63220    0.02930    0.82810    1.000
    C140     C        0.57120    0.07090    0.81110    1.000
    C141     C        0.76040    0.55780    0.83670    1.000
    C142     C        0.77150    0.50580    0.84590    1.000
    C143     C        0.85530    0.48660    0.86350    1.000
    H81      H        0.90420    0.50610    0.86930    1.000
    C144     C        0.69890    0.47610    0.83640    1.000
    H82      H        0.64260    0.48910    0.82530    1.000
    C145     C        0.86570    0.43860    0.87230    1.000
    H83      H        0.92210    0.42580    0.88530    1.000
    C146     C        0.70910    0.42800    0.84310    1.000
    H84      H        0.66020    0.40820    0.83510    1.000
    C147     C        0.79400    0.40920    0.86220    1.000
    C148     C        0.74740    0.32690    0.85950    1.000
    C149     C        0.71900    0.31270    0.80220    1.000
    H85      H        0.73590    0.32860    0.77300    1.000
    C150     C        0.71890    0.30680    0.90180    1.000
    H86      H        0.73640    0.31870    0.94050    1.000
    C151     C        0.66320    0.27290    0.78790    1.000
    H87      H        0.64410    0.26200    0.74870    1.000
    C152     C        0.66320    0.26820    0.88670    1.000
    H88      H        0.64320    0.25410    0.91580    1.000
    C153     C        0.63650    0.25010    0.83010    1.000
    C154     C        0.57680    0.20850    0.81450    1.000
    C155     C        0.70380    0.62960    0.69150    1.000
    C156     C        0.66540    0.62420    0.62480    1.000
    C157     C        0.71900    0.63260    0.58770    1.000
    H89      H        0.77760    0.64150    0.60420    1.000
    C158     C        0.58050    0.61010    0.59920    1.000
    H90      H        0.54460    0.60390    0.62280    1.000
    C159     C        0.54690    0.60480    0.53580    1.000
    H91      H        0.48950    0.59420    0.51850    1.000
    C160     C        0.68170    0.62710    0.52530    1.000
    H92      H        0.71610    0.63200    0.50050    1.000
    C161     C        0.59590    0.61480    0.50170    1.000
    C162     C        0.55250    0.57070    0.40940    1.000
    C163     C        0.61330    0.53500    0.42940    1.000
    H93      H        0.65660    0.53740    0.46630    1.000
    C164     C        0.48940    0.56770    0.35510    1.000
    H94      H        0.45170    0.59310    0.34050    1.000
    C165     C        0.48210    0.52690    0.32230    1.000
    H95      H        0.43540    0.52340    0.28730    1.000
    C166     C        0.60880    0.49590    0.39390    1.000
    H96      H        0.65100    0.47210    0.40620    1.000
    C167     C        0.54300    0.49130    0.34070    1.000
    C168     C        0.53970    0.44950    0.30140    1.000
    Dy5      Dy       0.27866    0.60491    0.70997    1.000
    Dy6      Dy       0.06000    0.64055    0.71840    1.000
    Dy7      Dy       0.89330    0.64227    0.80417    1.000
    Dy8      Dy       0.58598    0.63029    0.79246    1.000
    O31      O        0.21740    0.52235    0.70040    1.000
    O32      O        0.15260    0.57418    0.74190    1.000
    O33      O        0.05190    0.38562    0.85270    1.000
    O34      O        0.02330    0.17167    0.77300    1.000
    O35      O        0.16780    0.17560    0.81480    1.000
    O36      O        0.22510    0.66224    0.76220    1.000
    O37      O        0.12490    0.71765    0.73900    1.000
    O38      O        0.44960    0.84940    0.86000    1.000
    O39      O        0.62780    0.86181    0.14300    1.000
    O40      O        0.71460    0.90427    0.10650    1.000
    O41      O        0.08460    0.64127    0.81890    1.000
    O42      O        0.01680    0.60283    0.87360    1.000
    O43      O        0.42040    0.58640    0.03310    1.000
    O44      O        0.52400    0.38970    0.16600    1.000
    O45      O        0.64920    0.42850    0.19980    1.000
    O46      O        0.79390    0.69470    0.81930    1.000
    O47      O        0.64980    0.70454    0.80030    1.000
    O48      O        0.79450    0.91215    0.88260    1.000
    O49      O        0.55200    0.08809    0.75840    1.000
    O50      O        0.53850    0.08662    0.84850    1.000
    O51      O        0.82320    0.57979    0.82680    1.000
    O52      O        0.69150    0.57741    0.83980    1.000
    O53      O        0.81230    0.36223    0.87620    1.000
    O54      O        0.55690    0.19098    0.76237    1.000
    O55      O        0.54260    0.19285    0.85160    1.000
    O56      O        0.65180    0.62690    0.72050    1.000
    O57      O        0.78400    0.63739    0.71170    1.000
    O58      O        0.55570    0.61330    0.44130    1.000
    O59      O        0.60810    0.42464    0.31320    1.000
    O60      O        0.47160    0.44085    0.25930    1.000
    C169     C        0.66820    0.96900    0.23100    1.000
    C170     C        0.63080    0.00730    0.26010    1.000
    C171     C        0.61960    0.05330    0.23690    1.000
    H97      H        0.63120    0.05980    0.20140    1.000
    C172     C        0.61090    0.99900    0.31070    1.000
    H98      H        0.61540    0.96820    0.32540    1.000
    C173     C        0.59160    0.08890    0.26620    1.000
    H99      H        0.58190    0.11930    0.25000    1.000
    C174     C        0.58420    0.03450    0.34150    1.000
    H100     H        0.57080    0.02790    0.37640    1.000
    C175     C        0.57790    0.07930    0.31960    1.000
    C176     C        0.56340    0.16190    0.34150    1.000
    C177     C        0.64530    0.18000    0.34820    1.000
    H101     H        0.69480    0.16070    0.36040    1.000
    C178     C        0.49090    0.19080    0.32510    1.000
    H102     H        0.43540    0.17850    0.32140    1.000
    C179     C        0.65320    0.22700    0.33670    1.000
    H103     H        0.70880    0.23950    0.34140    1.000
    C180     C        0.50070    0.23790    0.31400    1.000
    H104     H        0.45160    0.25770    0.30330    1.000
    C181     C        0.58120    0.25610    0.31850    1.000
    C182     C        0.59120    0.30660    0.30140    1.000
    C183     C        0.70390    0.79370    0.26120    1.000
    C184     C        0.77050    0.75700    0.28930    1.000
    C185     C        0.74400    0.70990    0.28520    1.000
    H105     H        0.68550    0.70210    0.26580    1.000
    C186     C        0.85710    0.76890    0.31940    1.000
    H106     H        0.87460    0.80050    0.32220    1.000
    C187     C        0.80520    0.67410    0.31040    1.000
    H107     H        0.78890    0.64230    0.30770    1.000
    C188     C        0.91720    0.73400    0.34500    1.000
    H108     H        0.97510    0.74190    0.36590    1.000
    C189     C        0.89110    0.68810    0.33960    1.000
    C190     C        0.99250    0.64500    0.41910    1.000
    C191     C        0.06050    0.61240    0.43180    1.000
    H109     H        0.07350    0.59590    0.40140    1.000
    C192     C        0.96850    0.66660    0.46470    1.000
    H110     H        0.92070    0.68720    0.45580    1.000
    C193     C        0.10810    0.60490    0.49000    1.000
    H111     H        0.15600    0.58440    0.49910    1.000
    C194     C        0.01620    0.65730    0.52320    1.000
    H112     H        0.00020    0.67160    0.55380    1.000
    C195     C        0.08610    0.62750    0.53640    1.000
    C196     C        0.14570    0.62040    0.59830    1.000
    C197     C        0.58650    0.88330    0.36430    1.000
    C198     C        0.67360    0.89390    0.40910    1.000
    C199     C        0.74950    0.87810    0.39940    1.000
    H113     H        0.74570    0.86180    0.36440    1.000
    C200     C        0.68060    0.91860    0.46050    1.000
    H114     H        0.62990    0.92960    0.46750    1.000
    C201     C        0.83210    0.88600    0.44110    1.000
    H115     H        0.88280    0.87480    0.43430    1.000
    C202     C        0.76210    0.92740    0.50230    1.000
    H116     H        0.76550    0.94440    0.53670    1.000
    C203     C        0.83740    0.91090    0.49270    1.000
    C204     C        0.95140    0.95520    0.56360    1.000
    C205     C        0.02070    0.94860    0.61590    1.000
    H117     H        0.03980    0.91830    0.62930    1.000
    C206     C        0.92030    0.99890    0.54520    1.000
    H118     H        0.87380    0.00300    0.51020    1.000
    C207     C        0.06050    0.98820    0.64750    1.000
    H119     H        0.10890    0.98420    0.68140    1.000
    C208     C        0.96000    0.03840    0.58030    1.000
    H120     H        0.93750    0.06850    0.56880    1.000
    C209     C        0.03030    0.03340    0.63030    1.000
    C210     C        0.07050    0.07430    0.66760    1.000
    C211     C        0.22770    0.78020    0.31590    1.000
    C212     C        0.24240    0.72890    0.33210    1.000
    C213     C        0.32730    0.71210    0.36070    1.000
    H121     H        0.37460    0.73310    0.36950    1.000
    C214     C        0.17330    0.69730    0.32130    1.000
    H122     H        0.11590    0.70820    0.30470    1.000
    C215     C        0.34230    0.66520    0.37620    1.000
    H123     H        0.39920    0.65470    0.39590    1.000
    C216     C        0.18780    0.64990    0.33480    1.000
    H124     H        0.14060    0.62890    0.32530    1.000
    C217     C        0.27230    0.63310    0.36250    1.000
    C218     C        0.23670    0.55060    0.36170    1.000
    C219     C        0.22430    0.52140    0.40460    1.000
    H125     H        0.25150    0.52800    0.44480    1.000
    C220     C        0.20190    0.54020    0.30260    1.000
    H126     H        0.21360    0.55950    0.27400    1.000
    C221     C        0.17060    0.48190    0.38770    1.000
    H127     H        0.16030    0.46260    0.41690    1.000
    C222     C        0.14880    0.50050    0.28560    1.000
    H128     H        0.12390    0.49360    0.24530    1.000
    C223     C        0.13220    0.47070    0.32810    1.000
    C224     C        0.07120    0.42910    0.31110    1.000
    C225     C        0.26040    0.94220    0.33670    1.000
    C226     C        0.27150    0.99420    0.34590    1.000
    C227     C        0.35530    0.01340    0.36350    1.000
    H129     H        0.40420    0.99390    0.36930    1.000
    C228     C        0.19890    0.02390    0.33640    1.000
    H130     H        0.14260    0.01090    0.32530    1.000
    C229     C        0.36570    0.06140    0.37230    1.000
    H131     H        0.42210    0.07420    0.38530    1.000
    C230     C        0.20910    0.07200    0.34310    1.000
    H132     H        0.16020    0.09180    0.33510    1.000
    C231     C        0.29400    0.09080    0.36220    1.000
    C232     C        0.24740    0.17310    0.35950    1.000
    C233     C        0.21900    0.18730    0.30220    1.000
    H133     H        0.23590    0.17140    0.27300    1.000
    C234     C        0.21890    0.19320    0.40180    1.000
    H134     H        0.23640    0.18130    0.44050    1.000
    C235     C        0.16320    0.22710    0.28790    1.000
    H135     H        0.14410    0.23800    0.24870    1.000
    C236     C        0.16320    0.23180    0.38670    1.000
    H136     H        0.14320    0.24590    0.41580    1.000
    C237     C        0.13650    0.24990    0.33010    1.000
    C238     C        0.07680    0.29150    0.31450    1.000
    C239     C        0.20380    0.87040    0.19150    1.000
    C240     C        0.16540    0.87580    0.12480    1.000
    C241     C        0.21900    0.86740    0.08770    1.000
    H137     H        0.27760    0.85850    0.10420    1.000
    C242     C        0.08050    0.88990    0.09920    1.000
    H138     H        0.04460    0.89610    0.12280    1.000
    C243     C        0.04690    0.89520    0.03580    1.000
    H139     H        0.98950    0.90580    0.01850    1.000
    C244     C        0.18170    0.87290    0.02530    1.000
    H140     H        0.21610    0.86800    0.00050    1.000
    C245     C        0.09590    0.88520    0.00170    1.000
    C246     C        0.05250    0.92930    0.90940    1.000
    C247     C        0.11330    0.96500    0.92940    1.000
    H141     H        0.15660    0.96260    0.96630    1.000
    C248     C        0.98940    0.93230    0.85510    1.000
    H142     H        0.95170    0.90690    0.84050    1.000
    C249     C        0.98210    0.97310    0.82230    1.000
    H143     H        0.93540    0.97660    0.78730    1.000
    C250     C        0.10880    0.00410    0.89390    1.000
    H144     H        0.15100    0.02790    0.90620    1.000
    C251     C        0.04300    0.00870    0.84070    1.000
    C252     C        0.03970    0.05050    0.80140    1.000
    Dy9      Dy       0.77866    0.89509    0.20997    1.000
    Dy10     Dy       0.56000    0.85945    0.21840    1.000
    Dy11     Dy       0.39330    0.85773    0.30417    1.000
    Dy12     Dy       0.08598    0.86971    0.29246    1.000
    O61      O        0.71740    0.97765    0.20040    1.000
    O62      O        0.65260    0.92582    0.24190    1.000
    O63      O        0.55190    0.11438    0.35270    1.000
    O64      O        0.52330    0.32833    0.27300    1.000
    O65      O        0.66780    0.32440    0.31480    1.000
    O66      O        0.72510    0.83776    0.26220    1.000
    O67      O        0.62490    0.78235    0.23900    1.000
    O68      O        0.94960    0.65060    0.36000    1.000
    O69      O        0.12780    0.63819    0.64300    1.000
    O70      O        0.21460    0.59573    0.60650    1.000
    O71      O        0.58460    0.85873    0.31890    1.000
    O72      O        0.51680    0.89717    0.37360    1.000
    O73      O        0.92040    0.91360    0.53310    1.000
    O74      O        0.02400    0.11030    0.66600    1.000
    O75      O        0.14920    0.07150    0.69980    1.000
    O76      O        0.29390    0.80530    0.31930    1.000
    O77      O        0.14980    0.79546    0.30030    1.000
    O78      O        0.29450    0.58785    0.38260    1.000
    O79      O        0.05200    0.41191    0.25840    1.000
    O80      O        0.03850    0.41338    0.34850    1.000
    O81      O        0.32320    0.92021    0.32680    1.000
    O82      O        0.19150    0.92259    0.33980    1.000
    O83      O        0.31230    0.13777    0.37620    1.000
    O84      O        0.05690    0.30902    0.26237    1.000
    O85      O        0.04260    0.30715    0.35160    1.000
    O86      O        0.15180    0.87310    0.22050    1.000
    O87      O        0.28400    0.86261    0.21170    1.000
    O88      O        0.05570    0.88670    0.94130    1.000
    O89      O        0.10810    0.07536    0.81320    1.000
    O90      O        0.97160    0.05915    0.75930    1.000
    C253     C        0.83180    0.46900    0.26900    1.000
    C254     C        0.86920    0.50730    0.23990    1.000
    C255     C        0.88040    0.55330    0.26310    1.000
    H145     H        0.86880    0.55980    0.29860    1.000
    C256     C        0.88910    0.49900    0.18930    1.000
    H146     H        0.88460    0.46820    0.17460    1.000
    C257     C        0.90840    0.58890    0.23380    1.000
    H147     H        0.91810    0.61930    0.25000    1.000
    C258     C        0.91580    0.53450    0.15850    1.000
    H148     H        0.92920    0.52790    0.12360    1.000
    C259     C        0.92210    0.57930    0.18040    1.000
    C260     C        0.93660    0.66190    0.15850    1.000
    C261     C        0.85470    0.68000    0.15180    1.000
    H149     H        0.80520    0.66070    0.13960    1.000
    C262     C        0.00910    0.69080    0.17490    1.000
    H150     H        0.06460    0.67850    0.17860    1.000
    C263     C        0.84680    0.72700    0.16330    1.000
    H151     H        0.79120    0.73950    0.15860    1.000
    C264     C        0.99930    0.73790    0.18600    1.000
    H152     H        0.04840    0.75770    0.19670    1.000
    C265     C        0.91880    0.75610    0.18150    1.000
    C266     C        0.90880    0.80660    0.19860    1.000
    C267     C        0.79610    0.29370    0.23880    1.000
    C268     C        0.72950    0.25700    0.21070    1.000
    C269     C        0.75600    0.20990    0.21480    1.000
    H153     H        0.81450    0.20210    0.23420    1.000
    C270     C        0.64290    0.26890    0.18060    1.000
    H154     H        0.62540    0.30050    0.17780    1.000
    C271     C        0.69480    0.17410    0.18960    1.000
    H155     H        0.71110    0.14230    0.19230    1.000
    C272     C        0.58280    0.23400    0.15500    1.000
    H156     H        0.52490    0.24190    0.13410    1.000
    C273     C        0.60890    0.18810    0.16040    1.000
    C274     C        0.50750    0.14500    0.08090    1.000
    C275     C        0.43950    0.11240    0.06820    1.000
    H157     H        0.42650    0.09590    0.09860    1.000
    C276     C        0.53150    0.16660    0.03530    1.000
    H158     H        0.57930    0.18720    0.04420    1.000
    C277     C        0.39190    0.10490    0.01000    1.000
    H159     H        0.34400    0.08440    0.00090    1.000
    C278     C        0.48380    0.15730    0.97680    1.000
    H160     H        0.49980    0.17160    0.94620    1.000
    C279     C        0.41390    0.12750    0.96360    1.000
    C280     C        0.35430    0.12040    0.90170    1.000
    C281     C        0.91350    0.38330    0.13570    1.000
    C282     C        0.82640    0.39390    0.09090    1.000
    C283     C        0.75050    0.37810    0.10060    1.000
    H161     H        0.75430    0.36180    0.13560    1.000
    C284     C        0.81940    0.41860    0.03950    1.000
    H162     H        0.87010    0.42960    0.03250    1.000
    C285     C        0.66790    0.38600    0.05890    1.000
    H163     H        0.61720    0.37480    0.06570    1.000
    C286     C        0.73790    0.42740    0.99770    1.000
    H164     H        0.73450    0.44440    0.96330    1.000
    C287     C        0.66260    0.41090    0.00730    1.000
    C288     C        0.54860    0.45520    0.93640    1.000
    C289     C        0.47930    0.44860    0.88410    1.000
    H165     H        0.46020    0.41830    0.87070    1.000
    C290     C        0.57970    0.49890    0.95480    1.000
    H166     H        0.62620    0.50300    0.98980    1.000
    C291     C        0.43950    0.48820    0.85250    1.000
    H167     H        0.39110    0.48420    0.81860    1.000
    C292     C        0.54000    0.53840    0.91970    1.000
    H168     H        0.56250    0.56850    0.93120    1.000
    C293     C        0.46970    0.53340    0.86970    1.000
    C294     C        0.42950    0.57430    0.83240    1.000
    C295     C        0.27230    0.28020    0.18410    1.000
    C296     C        0.25760    0.22890    0.16790    1.000
    C297     C        0.17270    0.21210    0.13930    1.000
    H169     H        0.12540    0.23310    0.13050    1.000
    C298     C        0.32670    0.19730    0.17870    1.000
    H170     H        0.38410    0.20820    0.19530    1.000
    C299     C        0.15770    0.16520    0.12380    1.000
    H171     H        0.10080    0.15470    0.10410    1.000
    C300     C        0.31220    0.14990    0.16520    1.000
    H172     H        0.35940    0.12890    0.17470    1.000
    C301     C        0.22770    0.13310    0.13750    1.000
    C302     C        0.26330    0.05060    0.13830    1.000
    C303     C        0.27570    0.02140    0.09540    1.000
    H173     H        0.24850    0.02800    0.05520    1.000
    C304     C        0.29810    0.04020    0.19740    1.000
    H174     H        0.28640    0.05950    0.22600    1.000
    C305     C        0.32940    0.98190    0.11230    1.000
    H175     H        0.33970    0.96260    0.08310    1.000
    C306     C        0.35120    0.00050    0.21440    1.000
    H176     H        0.37610    0.99360    0.25470    1.000
    C307     C        0.36780    0.97070    0.17190    1.000
    C308     C        0.42880    0.92910    0.18890    1.000
    C309     C        0.23960    0.44220    0.16330    1.000
    C310     C        0.22850    0.49420    0.15410    1.000
    C311     C        0.14470    0.51340    0.13650    1.000
    H177     H        0.09580    0.49390    0.13070    1.000
    C312     C        0.30110    0.52390    0.16360    1.000
    H178     H        0.35740    0.51090    0.17470    1.000
    C313     C        0.13430    0.56140    0.12770    1.000
    H179     H        0.07790    0.57420    0.11470    1.000
    C314     C        0.29090    0.57200    0.15690    1.000
    H180     H        0.33980    0.59180    0.16490    1.000
    C315     C        0.20600    0.59080    0.13780    1.000
    C316     C        0.25260    0.67310    0.14050    1.000
    C317     C        0.28100    0.68730    0.19780    1.000
    H181     H        0.26410    0.67140    0.22700    1.000
    C318     C        0.28110    0.69320    0.09820    1.000
    H182     H        0.26360    0.68130    0.05950    1.000
    C319     C        0.33680    0.72710    0.21210    1.000
    H183     H        0.35590    0.73800    0.25130    1.000
    C320     C        0.33680    0.73180    0.11330    1.000
    H184     H        0.35680    0.74590    0.08420    1.000
    C321     C        0.36350    0.74990    0.16990    1.000
    C322     C        0.42320    0.79150    0.18550    1.000
    C323     C        0.29620    0.37040    0.30850    1.000
    C324     C        0.33460    0.37580    0.37520    1.000
    C325     C        0.28100    0.36740    0.41230    1.000
    H185     H        0.22240    0.35850    0.39580    1.000
    C326     C        0.41950    0.38990    0.40080    1.000
    H186     H        0.45540    0.39610    0.37720    1.000
    C327     C        0.45310    0.39520    0.46420    1.000
    H187     H        0.51050    0.40580    0.48150    1.000
    C328     C        0.31830    0.37290    0.47470    1.000
    H188     H        0.28390    0.36800    0.49950    1.000
    C329     C        0.40410    0.38520    0.49830    1.000
    C330     C        0.44750    0.42930    0.59060    1.000
    C331     C        0.38670    0.46500    0.57060    1.000
    H189     H        0.34340    0.46260    0.53370    1.000
    C332     C        0.51060    0.43230    0.64490    1.000
    H190     H        0.54830    0.40690    0.65950    1.000
    C333     C        0.51790    0.47310    0.67770    1.000
    H191     H        0.56460    0.47660    0.71270    1.000
    C334     C        0.39120    0.50410    0.60610    1.000
    H192     H        0.34900    0.52790    0.59380    1.000
    C335     C        0.45700    0.50870    0.65930    1.000
    C336     C        0.46030    0.55050    0.69860    1.000
    Dy13     Dy       0.72134    0.39509    0.29003    1.000
    Dy14     Dy       0.94000    0.35945    0.28160    1.000
    Dy15     Dy       0.10670    0.35773    0.19583    1.000
    Dy16     Dy       0.41402    0.36971    0.20754    1.000
    O91      O        0.78260    0.47765    0.29960    1.000
    O92      O        0.84740    0.42582    0.25810    1.000
    O93      O        0.94810    0.61438    0.14730    1.000
    O94      O        0.97670    0.82833    0.22700    1.000
    O95      O        0.83220    0.82440    0.18520    1.000
    O96      O        0.77490    0.33776    0.23780    1.000
    O97      O        0.87510    0.28235    0.26100    1.000
    O98      O        0.55040    0.15060    0.14000    1.000
    O99      O        0.37220    0.13819    0.85700    1.000
    O100     O        0.28540    0.09573    0.89350    1.000
    O101     O        0.91540    0.35873    0.18110    1.000
    O102     O        0.98320    0.39717    0.12640    1.000
    O103     O        0.57960    0.41360    0.96690    1.000
    O104     O        0.47600    0.61030    0.83400    1.000
    O105     O        0.35080    0.57150    0.80020    1.000
    O106     O        0.20610    0.30530    0.18070    1.000
    O107     O        0.35020    0.29546    0.19970    1.000
    O108     O        0.20550    0.08785    0.11740    1.000
    O109     O        0.44800    0.91191    0.24160    1.000
    O110     O        0.46150    0.91338    0.15150    1.000
    O111     O        0.17680    0.42021    0.17320    1.000
    O112     O        0.30850    0.42259    0.16020    1.000
    O113     O        0.18770    0.63777    0.12380    1.000
    O114     O        0.44310    0.80902    0.23763    1.000
    O115     O        0.45740    0.80715    0.14840    1.000
    O116     O        0.34820    0.37310    0.27950    1.000
    O117     O        0.21600    0.36261    0.28830    1.000
    O118     O        0.44430    0.38670    0.55870    1.000
    O119     O        0.39190    0.57536    0.68680    1.000
    O120     O        0.52840    0.55915    0.74070    1.000
