# CIF file generated by openbabel 3.1.0, see https://openbabel.org
data_I
_chemical_name_common 'image0'
_cell_length_a 17.287
_cell_length_b 6.727
_cell_length_c 12.461
_cell_angle_alpha 90
_cell_angle_beta 90
_cell_angle_gamma 90
_space_group_name_H-M_alt 'P 1'
_space_group_name_Hall 'P 1'
loop_
    _symmetry_equiv_pos_as_xyz
    x,y,z
loop_
    _atom_site_label
    _atom_site_type_symbol
    _atom_site_fract_x
    _atom_site_fract_y
    _atom_site_fract_z
    _atom_site_occupancy
    O1       O        0.58210    0.08360    0.90040    1.000
    C1       C        0.71640    0.07300    0.78050    1.000
    H1       H        0.69410    0.95310    0.80110    1.000
    O2       O        0.08210    0.58360    0.40040    1.000
    C2       C        0.21640    0.57300    0.28050    1.000
    H2       H        0.19410    0.45310    0.30110    1.000
    O3       O        0.41790    0.41640    0.90040    1.000
    C3       C        0.28360    0.42700    0.78050    1.000
    H3       H        0.30590    0.54690    0.80110    1.000
    O4       O        0.91790    0.91640    0.40040    1.000
    C4       C        0.78360    0.92700    0.28050    1.000
    H4       H        0.80590    0.04690    0.30110    1.000
    O5       O        0.41790    0.58360    0.09960    1.000
    C5       C        0.28360    0.57300    0.21950    1.000
    H5       H        0.30590    0.45310    0.19890    1.000
    O6       O        0.91790    0.08360    0.59960    1.000
    C6       C        0.78360    0.07300    0.71950    1.000
    H6       H        0.80590    0.95310    0.69890    1.000
    O7       O        0.58210    0.91640    0.09960    1.000
    C7       C        0.71640    0.92700    0.21950    1.000
    H7       H        0.69410    0.04690    0.19890    1.000
    O8       O        0.08210    0.41640    0.59960    1.000
    C8       C        0.21640    0.42700    0.71950    1.000
    H8       H        0.19410    0.54690    0.69890    1.000
    O9       O        0.41790    0.91640    0.09960    1.000
    C9       C        0.28360    0.92700    0.21950    1.000
    H9       H        0.30590    0.04690    0.19890    1.000
    O10      O        0.91790    0.41640    0.59960    1.000
    C10      C        0.78360    0.42700    0.71950    1.000
    H10      H        0.80590    0.54690    0.69890    1.000
    O11      O        0.58210    0.58360    0.09960    1.000
    C11      C        0.71640    0.57300    0.21950    1.000
    H11      H        0.69410    0.45310    0.19890    1.000
    O12      O        0.08210    0.08360    0.59960    1.000
    C12      C        0.21640    0.07300    0.71950    1.000
    H12      H        0.19410    0.95310    0.69890    1.000
    O13      O        0.58210    0.41640    0.90040    1.000
    C13      C        0.71640    0.42700    0.78050    1.000
    H13      H        0.69410    0.54690    0.80110    1.000
    O14      O        0.08210    0.91640    0.40040    1.000
    C14      C        0.21640    0.92700    0.28050    1.000
    H14      H        0.19410    0.04690    0.30110    1.000
    O15      O        0.41790    0.08360    0.90040    1.000
    C15      C        0.28360    0.07300    0.78050    1.000
    H15      H        0.30590    0.95310    0.80110    1.000
    O16      O        0.91790    0.58360    0.40040    1.000
    C16      C        0.78360    0.57300    0.28050    1.000
    H16      H        0.80590    0.45310    0.30110    1.000
    Ga1      Ga       0.50000    0.00000    0.00000    1.000
    Ga2      Ga       0.00000    0.50000    0.50000    1.000
    Ga3      Ga       0.50000    0.50000    0.00000    1.000
    Ga4      Ga       0.00000    0.00000    0.50000    1.000
    O17      O        0.50000    0.25000    0.06970    1.000
    O18      O        0.00000    0.75000    0.56970    1.000
    O19      O        0.50000    0.75000    0.93030    1.000
    O20      O        0.00000    0.25000    0.43030    1.000
    C17      C        0.68250    0.25000    0.81070    1.000
    C18      C        0.60930    0.25000    0.87610    1.000
    C19      C        0.18250    0.75000    0.31070    1.000
    C20      C        0.10930    0.75000    0.37610    1.000
    C21      C        0.31750    0.25000    0.81070    1.000
    C22      C        0.39070    0.25000    0.87610    1.000
    C23      C        0.81750    0.75000    0.31070    1.000
    C24      C        0.89070    0.75000    0.37610    1.000
    C25      C        0.31750    0.75000    0.18930    1.000
    C26      C        0.39070    0.75000    0.12390    1.000
    C27      C        0.81750    0.25000    0.68930    1.000
    C28      C        0.89070    0.25000    0.62390    1.000
    C29      C        0.68250    0.75000    0.18930    1.000
    C30      C        0.60930    0.75000    0.12390    1.000
    C31      C        0.18250    0.25000    0.68930    1.000
    C32      C        0.10930    0.25000    0.62390    1.000
