# CIF file generated by openbabel 3.1.0, see https://openbabel.org
data_I
_chemical_name_common 'image0'
_cell_length_a 17.1
_cell_length_b 13.303
_cell_length_c 7.297
_cell_angle_alpha 90
_cell_angle_beta 90
_cell_angle_gamma 90
_space_group_name_H-M_alt 'P 1'
_space_group_name_Hall 'P 1'
loop_
    _symmetry_equiv_pos_as_xyz
    x,y,z
loop_
    _atom_site_label
    _atom_site_type_symbol
    _atom_site_fract_x
    _atom_site_fract_y
    _atom_site_fract_z
    _atom_site_occupancy
    C1       C        0.61150    0.46840    0.76700    1.000
    H1       H        0.58280    0.48970    0.87620    1.000
    H2       H        0.66780    0.46850    0.79280    1.000
    H3       H        0.59500    0.40050    0.73170    1.000
    C2       C        0.59550    0.53680    0.61900    1.000
    C3       C        0.53340    0.53580    0.49300    1.000
    C4       C        0.54570    0.61520    0.37400    1.000
    C5       C        0.50260    0.65200    0.21500    1.000
    H4       H        0.50500    0.72520    0.21070    1.000
    H5       H        0.44800    0.63010    0.22310    1.000
    H6       H        0.52600    0.62410    0.10270    1.000
    N1       N        0.64480    0.61360    0.57830    1.000
    N2       N        0.61220    0.65880    0.42990    1.000
    H7       H        0.63280    0.71160    0.37570    1.000
    C6       C        0.11150    0.96840    0.26700    1.000
    H8       H        0.08280    0.98970    0.37620    1.000
    H9       H        0.16780    0.96850    0.29280    1.000
    H10      H        0.09500    0.90050    0.23170    1.000
    C7       C        0.09550    0.03680    0.11900    1.000
    C8       C        0.03340    0.03580    0.99300    1.000
    C9       C        0.04570    0.11520    0.87400    1.000
    C10      C        0.00260    0.15200    0.71500    1.000
    H11      H        0.00500    0.22520    0.71070    1.000
    H12      H        0.94800    0.13010    0.72310    1.000
    H13      H        0.02600    0.12410    0.60270    1.000
    N3       N        0.14480    0.11360    0.07830    1.000
    N4       N        0.11220    0.15880    0.92990    1.000
    H14      H        0.13280    0.21160    0.87570    1.000
    C11      C        0.38850    0.53160    0.76700    1.000
    H15      H        0.41720    0.51030    0.87620    1.000
    H16      H        0.33220    0.53150    0.79280    1.000
    H17      H        0.40500    0.59950    0.73170    1.000
    C12      C        0.40450    0.46320    0.61900    1.000
    C13      C        0.46660    0.46420    0.49300    1.000
    C14      C        0.45430    0.38480    0.37400    1.000
    C15      C        0.49740    0.34800    0.21500    1.000
    H18      H        0.49500    0.27480    0.21070    1.000
    H19      H        0.55200    0.36990    0.22310    1.000
    H20      H        0.47400    0.37590    0.10270    1.000
    N5       N        0.35520    0.38640    0.57830    1.000
    N6       N        0.38780    0.34120    0.42990    1.000
    H21      H        0.36720    0.28840    0.37570    1.000
    C16      C        0.88850    0.03160    0.26700    1.000
    H22      H        0.91720    0.01030    0.37620    1.000
    H23      H        0.83220    0.03150    0.29280    1.000
    H24      H        0.90500    0.09950    0.23170    1.000
    C17      C        0.90450    0.96320    0.11900    1.000
    C18      C        0.96660    0.96420    0.99300    1.000
    C19      C        0.95430    0.88480    0.87400    1.000
    C20      C        0.99740    0.84800    0.71500    1.000
    H25      H        0.99500    0.77480    0.71070    1.000
    H26      H        0.05200    0.86990    0.72310    1.000
    H27      H        0.97400    0.87590    0.60270    1.000
    N7       N        0.85520    0.88640    0.07830    1.000
    N8       N        0.88780    0.84120    0.92990    1.000
    H28      H        0.86720    0.78840    0.87570    1.000
    C21      C        0.11150    0.53160    0.76700    1.000
    H29      H        0.08280    0.51030    0.87620    1.000
    H30      H        0.16780    0.53150    0.79280    1.000
    H31      H        0.09500    0.59950    0.73170    1.000
    C22      C        0.09550    0.46320    0.61900    1.000
    C23      C        0.03340    0.46420    0.49300    1.000
    C24      C        0.04570    0.38480    0.37400    1.000
    C25      C        0.00260    0.34800    0.21500    1.000
    H32      H        0.00500    0.27480    0.21070    1.000
    H33      H        0.94800    0.36990    0.22310    1.000
    H34      H        0.02600    0.37590    0.10270    1.000
    N9       N        0.14480    0.38640    0.57830    1.000
    N10      N        0.11220    0.34120    0.42990    1.000
    H35      H        0.13280    0.28840    0.37570    1.000
    C26      C        0.61150    0.03160    0.26700    1.000
    H36      H        0.58280    0.01030    0.37620    1.000
    H37      H        0.66780    0.03150    0.29280    1.000
    H38      H        0.59500    0.09950    0.23170    1.000
    C27      C        0.59550    0.96320    0.11900    1.000
    C28      C        0.53340    0.96420    0.99300    1.000
    C29      C        0.54570    0.88480    0.87400    1.000
    C30      C        0.50260    0.84800    0.71500    1.000
    H39      H        0.50500    0.77480    0.71070    1.000
    H40      H        0.44800    0.86990    0.72310    1.000
    H41      H        0.52600    0.87590    0.60270    1.000
    N11      N        0.64480    0.88640    0.07830    1.000
    N12      N        0.61220    0.84120    0.92990    1.000
    H42      H        0.63280    0.78840    0.87570    1.000
    C31      C        0.88850    0.46840    0.76700    1.000
    H43      H        0.91720    0.48970    0.87620    1.000
    H44      H        0.83220    0.46850    0.79280    1.000
    H45      H        0.90500    0.40050    0.73170    1.000
    C32      C        0.90450    0.53680    0.61900    1.000
    C33      C        0.96660    0.53580    0.49300    1.000
    C34      C        0.95430    0.61520    0.37400    1.000
    C35      C        0.99740    0.65200    0.21500    1.000
    H46      H        0.99500    0.72520    0.21070    1.000
    H47      H        0.05200    0.63010    0.22310    1.000
    H48      H        0.97400    0.62410    0.10270    1.000
    N13      N        0.85520    0.61360    0.57830    1.000
    N14      N        0.88780    0.65880    0.42990    1.000
    H49      H        0.86720    0.71160    0.37570    1.000
    C36      C        0.38850    0.96840    0.26700    1.000
    H50      H        0.41720    0.98970    0.37620    1.000
    H51      H        0.33220    0.96850    0.29280    1.000
    H52      H        0.40500    0.90050    0.23170    1.000
    C37      C        0.40450    0.03680    0.11900    1.000
    C38      C        0.46660    0.03580    0.99300    1.000
    C39      C        0.45430    0.11520    0.87400    1.000
    C40      C        0.49740    0.15200    0.71500    1.000
    H53      H        0.49500    0.22520    0.71070    1.000
    H54      H        0.55200    0.13010    0.72310    1.000
    H55      H        0.47400    0.12410    0.60270    1.000
    N15      N        0.35520    0.11360    0.07830    1.000
    N16      N        0.38780    0.15880    0.92990    1.000
    H56      H        0.36720    0.21160    0.87570    1.000
    Cu1      Cu       0.75000    0.65160    0.66790    1.000
    I1       I        0.75000    0.84764    0.53478    1.000
    Cu2      Cu       0.25000    0.15160    0.16790    1.000
    I2       I        0.25000    0.34764    0.03478    1.000
    Cu3      Cu       0.25000    0.34840    0.66790    1.000
    I3       I        0.25000    0.15236    0.53478    1.000
    Cu4      Cu       0.75000    0.84840    0.16790    1.000
    I4       I        0.75000    0.65236    0.03478    1.000
