# CIF file generated by openbabel 3.1.0, see https://openbabel.org
data_I
_chemical_name_common 'image0'
_cell_length_a 12.5085
_cell_length_b 12.5085
_cell_length_c 70.2284
_cell_angle_alpha 90
_cell_angle_beta 90
_cell_angle_gamma 90
_space_group_name_H-M_alt 'P 1'
_space_group_name_Hall 'P 1'
loop_
    _symmetry_equiv_pos_as_xyz
    x,y,z
loop_
    _atom_site_label
    _atom_site_type_symbol
    _atom_site_fract_x
    _atom_site_fract_y
    _atom_site_fract_z
    _atom_site_occupancy
    Cu1      Cu       0.61801    0.37977    0.83313    1.000
    Cu2      Cu       0.68690    0.44081    0.86729    1.000
    Cu3      Cu       0.60360    0.77676    0.74547    1.000
    Cu4      Cu       0.65481    0.97478    0.75029    1.000
    O1       O        0.54330    0.47860    0.87445    1.000
    O2       O        0.69380    0.57970    0.85310    1.000
    O3       O        0.65420    0.29100    0.87356    1.000
    O4       O        0.82870    0.40150    0.85798    1.000
    O5       O        0.74280    0.01020    0.85776    1.000
    O6       O        0.60060    0.24130    0.84430    1.000
    O7       O        0.76980    0.35360    0.82905    1.000
    C1       C        0.04160    0.38930    0.84737    1.000
    H1       H        0.02720    0.39520    0.86030    1.000
    O8       O        0.02320    0.34470    0.77709    1.000
    C2       C        0.08130    0.37330    0.80841    1.000
    C3       C        0.63760    0.91880    0.81767    1.000
    H2       H        0.63320    0.98890    0.81330    1.000
    C4       C        0.65630    0.70870    0.82985    1.000
    C5       C        0.65830    0.79130    0.84278    1.000
    H3       H        0.66950    0.77660    0.85560    1.000
    N1       N        0.28670    0.50950    0.85293    1.000
    C6       C        0.84530    0.37610    0.84127    1.000
    C7       C        0.65580    0.98580    0.85105    1.000
    C8       C        0.47240    0.47500    0.86169    1.000
    C9       C        0.61370    0.22630    0.86137    1.000
    C10      C        0.10850    0.36640    0.78797    1.000
    C11      C        0.64350    0.89890    0.83679    1.000
    O9       O        0.60140    0.77990    0.77303    1.000
    C12      C        0.64340    0.72820    0.81053    1.000
    H4       H        0.63840    0.67240    0.80180    1.000
    C13      C        0.63830    0.83450    0.80466    1.000
    C14      C        0.66240    0.59660    0.83637    1.000
    C15      C        0.95940    0.37150    0.83461    1.000
    C16      C        0.23370    0.42010    0.85471    1.000
    O10      O        0.64560    0.94420    0.77783    1.000
    C17      C        0.16670    0.38910    0.82124    1.000
    H5       H        0.23660    0.39350    0.81680    1.000
    C18      C        0.14500    0.39820    0.84079    1.000
    C19      C        0.62770    0.85760    0.78343    1.000
    O11      O        0.19740    0.38260    0.78192    1.000
    C20      C        0.56850    0.12260    0.87019    1.000
    H6       H        0.60920    0.10170    0.88150    1.000
    C21      C        0.37260    0.53840    0.86554    1.000
    H7       H        0.34990    0.52500    0.87870    1.000
    C22      C        0.97990    0.36230    0.81485    1.000
    H8       H        0.92430    0.34890    0.80640    1.000
    O12      O        0.25000    0.35950    0.86838    1.000
    C23      C        0.39370    0.11040    0.85684    1.000
    H9       H        0.32100    0.08860    0.85970    1.000
    H10      H        0.39170    0.16940    0.84790    1.000
    C24      C        0.45350    0.14160    0.87496    1.000
    H11      H        0.43140    0.09750    0.88560    1.000
    H12      H        0.44110    0.21600    0.87810    1.000
    C25      C        0.27260    0.59430    0.83858    1.000
    H13      H        0.20280    0.62770    0.83960    1.000
    H14      H        0.28230    0.56720    0.82580    1.000
    O13      O        0.63680    0.52600    0.82423    1.000
    O14      O        0.48290    0.42920    0.84567    1.000
    N2       N        0.56560    0.03520    0.85612    1.000
    O15      O        0.02560    0.50860    0.75058    1.000
    O16      O        0.80410    0.94940    0.75086    1.000
    C26      C        0.81250    0.85580    0.74743    1.000
    O17      O        0.77080    0.77550    0.74596    1.000
    O18      O        0.20600    0.54330    0.75470    1.000
    C27      C        0.10610    0.55680    0.75373    1.000
    C28      C        0.45700    0.01900    0.84904    1.000
    H15      H        0.42840    0.95140    0.85350    1.000
    H16      H        0.45580    0.01950    0.83520    1.000
    C29      C        0.94590    0.84100    0.75090    1.000
    C30      C        0.39370    0.65130    0.86330    1.000
    H17      H        0.35160    0.69330    0.87220    1.000
    H18      H        0.46890    0.66710    0.86530    1.000
    C31      C        0.36270    0.67200    0.84420    1.000
    H19      H        0.42340    0.66250    0.83580    1.000
    H20      H        0.33790    0.74520    0.84300    1.000
    C32      C        0.98260    0.72230    0.75320    1.000
    C33      C        0.01500    0.91300    0.75320    1.000
    C34      C        0.08080    0.68170    0.75160    1.000
    C35      C        0.14500    0.75800    0.75410    1.000
    Cu5      Cu       0.38199    0.62023    0.33313    1.000
    Cu6      Cu       0.31310    0.55919    0.36729    1.000
    Cu7      Cu       0.39640    0.22324    0.24547    1.000
    Cu8      Cu       0.34519    0.02522    0.25029    1.000
    O19      O        0.45670    0.52140    0.37445    1.000
    O20      O        0.30620    0.42030    0.35310    1.000
    O21      O        0.34580    0.70900    0.37356    1.000
    O22      O        0.17130    0.59850    0.35798    1.000
    O23      O        0.25720    0.98980    0.35776    1.000
    O24      O        0.39940    0.75870    0.34430    1.000
    O25      O        0.23020    0.64640    0.32905    1.000
    C36      C        0.95840    0.61070    0.34737    1.000
    H21      H        0.97280    0.60480    0.36030    1.000
    O26      O        0.97680    0.65530    0.27709    1.000
    C37      C        0.91870    0.62670    0.30841    1.000
    C38      C        0.36240    0.08120    0.31767    1.000
    H22      H        0.36680    0.01110    0.31330    1.000
    C39      C        0.34370    0.29130    0.32985    1.000
    C40      C        0.34170    0.20870    0.34278    1.000
    H23      H        0.33050    0.22340    0.35560    1.000
    N3       N        0.71330    0.49050    0.35293    1.000
    C41      C        0.15470    0.62390    0.34127    1.000
    C42      C        0.34420    0.01420    0.35105    1.000
    C43      C        0.52760    0.52500    0.36169    1.000
    C44      C        0.38630    0.77370    0.36137    1.000
    C45      C        0.89150    0.63360    0.28797    1.000
    C46      C        0.35650    0.10110    0.33679    1.000
    O27      O        0.39860    0.22010    0.27303    1.000
    C47      C        0.35660    0.27180    0.31053    1.000
    H24      H        0.36160    0.32760    0.30180    1.000
    C48      C        0.36170    0.16550    0.30466    1.000
    C49      C        0.33760    0.40340    0.33637    1.000
    C50      C        0.04060    0.62850    0.33461    1.000
    C51      C        0.76630    0.57990    0.35471    1.000
    O28      O        0.35440    0.05580    0.27783    1.000
    C52      C        0.83330    0.61090    0.32124    1.000
    H25      H        0.76340    0.60650    0.31680    1.000
    C53      C        0.85500    0.60180    0.34079    1.000
    C54      C        0.37230    0.14240    0.28343    1.000
    O29      O        0.80260    0.61740    0.28192    1.000
    C55      C        0.43150    0.87740    0.37019    1.000
    H26      H        0.39080    0.89830    0.38150    1.000
    C56      C        0.62740    0.46160    0.36554    1.000
    H27      H        0.65010    0.47500    0.37870    1.000
    C57      C        0.02010    0.63770    0.31485    1.000
    H28      H        0.07570    0.65110    0.30640    1.000
    O30      O        0.75000    0.64050    0.36838    1.000
    C58      C        0.60630    0.88960    0.35684    1.000
    H29      H        0.67900    0.91140    0.35970    1.000
    H30      H        0.60830    0.83060    0.34790    1.000
    C59      C        0.54650    0.85840    0.37496    1.000
    H31      H        0.56860    0.90250    0.38560    1.000
    H32      H        0.55890    0.78400    0.37810    1.000
    C60      C        0.72740    0.40570    0.33858    1.000
    H33      H        0.79720    0.37230    0.33960    1.000
    H34      H        0.71770    0.43280    0.32580    1.000
    O31      O        0.36320    0.47400    0.32423    1.000
    O32      O        0.51710    0.57080    0.34567    1.000
    N4       N        0.43440    0.96480    0.35612    1.000
    O33      O        0.97440    0.49140    0.25058    1.000
    O34      O        0.19590    0.05060    0.25086    1.000
    C61      C        0.18750    0.14420    0.24743    1.000
    O35      O        0.22920    0.22450    0.24596    1.000
    O36      O        0.79400    0.45670    0.25470    1.000
    C62      C        0.89390    0.44320    0.25373    1.000
    C63      C        0.54300    0.98100    0.34904    1.000
    H35      H        0.57160    0.04860    0.35350    1.000
    H36      H        0.54420    0.98050    0.33520    1.000
    C64      C        0.05410    0.15900    0.25090    1.000
    C65      C        0.60630    0.34870    0.36330    1.000
    H37      H        0.64840    0.30670    0.37220    1.000
    H38      H        0.53110    0.33290    0.36530    1.000
    C66      C        0.63730    0.32800    0.34420    1.000
    H39      H        0.57660    0.33750    0.33580    1.000
    H40      H        0.66210    0.25480    0.34300    1.000
    C67      C        0.01740    0.27770    0.25320    1.000
    C68      C        0.98500    0.08700    0.25320    1.000
    C69      C        0.91920    0.31830    0.25160    1.000
    C70      C        0.85500    0.24200    0.25410    1.000
    Cu9      Cu       0.12023    0.11801    0.58313    1.000
    Cu10     Cu       0.05919    0.18690    0.61729    1.000
    Cu11     Cu       0.72324    0.10360    0.49547    1.000
    Cu12     Cu       0.52522    0.15481    0.50029    1.000
    O37      O        0.02140    0.04330    0.62445    1.000
    O38      O        0.92030    0.19380    0.60310    1.000
    O39      O        0.20900    0.15420    0.62356    1.000
    O40      O        0.09850    0.32870    0.60798    1.000
    O41      O        0.48980    0.24280    0.60776    1.000
    O42      O        0.25870    0.10060    0.59430    1.000
    O43      O        0.14640    0.26980    0.57905    1.000
    C71      C        0.11070    0.54160    0.59737    1.000
    H41      H        0.10480    0.52720    0.61030    1.000
    O44      O        0.15530    0.52320    0.52709    1.000
    C72      C        0.12670    0.58130    0.55841    1.000
    C73      C        0.58120    0.13760    0.56767    1.000
    H42      H        0.51110    0.13320    0.56330    1.000
    C74      C        0.79130    0.15630    0.57985    1.000
    C75      C        0.70870    0.15830    0.59278    1.000
    H43      H        0.72340    0.16950    0.60560    1.000
    N5       N        0.99050    0.78670    0.60293    1.000
    C76      C        0.12390    0.34530    0.59127    1.000
    C77      C        0.51420    0.15580    0.60105    1.000
    C78      C        0.02500    0.97240    0.61169    1.000
    C79      C        0.27370    0.11370    0.61137    1.000
    C80      C        0.13360    0.60850    0.53797    1.000
    C81      C        0.60110    0.14350    0.58679    1.000
    O45      O        0.72010    0.10140    0.52303    1.000
    C82      C        0.77180    0.14340    0.56053    1.000
    H44      H        0.82760    0.13840    0.55180    1.000
    C83      C        0.66550    0.13830    0.55466    1.000
    C84      C        0.90340    0.16240    0.58637    1.000
    C85      C        0.12850    0.45940    0.58461    1.000
    C86      C        0.07990    0.73370    0.60471    1.000
    O46      O        0.55580    0.14560    0.52783    1.000
    C87      C        0.11090    0.66670    0.57124    1.000
    H45      H        0.10650    0.73660    0.56680    1.000
    C88      C        0.10180    0.64500    0.59079    1.000
    C89      C        0.64240    0.12770    0.53343    1.000
    O47      O        0.11740    0.69740    0.53192    1.000
    C90      C        0.37740    0.06850    0.62019    1.000
    H46      H        0.39830    0.10920    0.63150    1.000
    C91      C        0.96160    0.87260    0.61554    1.000
    H47      H        0.97500    0.84990    0.62870    1.000
    C92      C        0.13770    0.47990    0.56485    1.000
    H48      H        0.15110    0.42430    0.55640    1.000
    O48      O        0.14050    0.75000    0.61838    1.000
    C93      C        0.38960    0.89370    0.60684    1.000
    H49      H        0.41140    0.82100    0.60970    1.000
    H50      H        0.33060    0.89170    0.59790    1.000
    C94      C        0.35840    0.95350    0.62496    1.000
    H51      H        0.40250    0.93140    0.63560    1.000
    H52      H        0.28400    0.94110    0.62810    1.000
    C95      C        0.90570    0.77260    0.58858    1.000
    H53      H        0.87230    0.70280    0.58960    1.000
    H54      H        0.93280    0.78230    0.57580    1.000
    O49      O        0.97400    0.13680    0.57423    1.000
    O50      O        0.07080    0.98290    0.59567    1.000
    N6       N        0.46480    0.06560    0.60612    1.000
    O51      O        0.99140    0.52560    0.50058    1.000
    O52      O        0.55060    0.30410    0.50086    1.000
    C96      C        0.64420    0.31250    0.49743    1.000
    O53      O        0.72450    0.27080    0.49596    1.000
    O54      O        0.95670    0.70600    0.50470    1.000
    C97      C        0.94320    0.60610    0.50373    1.000
    C98      C        0.48100    0.95700    0.59904    1.000
    H55      H        0.54860    0.92840    0.60350    1.000
    H56      H        0.48050    0.95580    0.58520    1.000
    C99      C        0.65900    0.44590    0.50090    1.000
    C100     C        0.84870    0.89370    0.61330    1.000
    H57      H        0.80670    0.85160    0.62220    1.000
    H58      H        0.83290    0.96890    0.61530    1.000
    C101     C        0.82800    0.86270    0.59420    1.000
    H59      H        0.83750    0.92340    0.58580    1.000
    H60      H        0.75480    0.83790    0.59300    1.000
    C102     C        0.77770    0.48260    0.50320    1.000
    C103     C        0.58700    0.51500    0.50320    1.000
    C104     C        0.81830    0.58080    0.50160    1.000
    C105     C        0.74200    0.64500    0.50410    1.000
    Cu13     Cu       0.87977    0.88199    0.08313    1.000
    Cu14     Cu       0.94081    0.81310    0.11729    1.000
    Cu15     Cu       0.27676    0.89640    0.99547    1.000
    Cu16     Cu       0.47478    0.84519    0.00029    1.000
    O55      O        0.97860    0.95670    0.12445    1.000
    O56      O        0.07970    0.80620    0.10310    1.000
    O57      O        0.79100    0.84580    0.12356    1.000
    O58      O        0.90150    0.67130    0.10798    1.000
    O59      O        0.51020    0.75720    0.10776    1.000
    O60      O        0.74130    0.89940    0.09430    1.000
    O61      O        0.85360    0.73020    0.07905    1.000
    C106     C        0.88930    0.45840    0.09737    1.000
    H61      H        0.89520    0.47280    0.11030    1.000
    O62      O        0.84470    0.47680    0.02709    1.000
    C107     C        0.87330    0.41870    0.05841    1.000
    C108     C        0.41880    0.86240    0.06767    1.000
    H62      H        0.48890    0.86680    0.06330    1.000
    C109     C        0.20870    0.84370    0.07985    1.000
    C110     C        0.29130    0.84170    0.09278    1.000
    H63      H        0.27660    0.83050    0.10560    1.000
    N7       N        0.00950    0.21330    0.10293    1.000
    C111     C        0.87610    0.65470    0.09127    1.000
    C112     C        0.48580    0.84420    0.10105    1.000
    C113     C        0.97500    0.02760    0.11169    1.000
    C114     C        0.72630    0.88630    0.11137    1.000
    C115     C        0.86640    0.39150    0.03797    1.000
    C116     C        0.39890    0.85650    0.08679    1.000
    O63      O        0.27990    0.89860    0.02303    1.000
    C117     C        0.22820    0.85660    0.06053    1.000
    H64      H        0.17240    0.86160    0.05180    1.000
    C118     C        0.33450    0.86170    0.05466    1.000
    C119     C        0.09660    0.83760    0.08637    1.000
    C120     C        0.87150    0.54060    0.08461    1.000
    C121     C        0.92010    0.26630    0.10471    1.000
    O64      O        0.44420    0.85440    0.02783    1.000
    C122     C        0.88910    0.33330    0.07124    1.000
    H65      H        0.89350    0.26340    0.06680    1.000
    C123     C        0.89820    0.35500    0.09079    1.000
    C124     C        0.35760    0.87230    0.03343    1.000
    O65      O        0.88260    0.30260    0.03192    1.000
    C125     C        0.62260    0.93150    0.12019    1.000
    H66      H        0.60170    0.89080    0.13150    1.000
    C126     C        0.03840    0.12740    0.11554    1.000
    H67      H        0.02500    0.15010    0.12870    1.000
    C127     C        0.86230    0.52010    0.06485    1.000
    H68      H        0.84890    0.57570    0.05640    1.000
    O66      O        0.85950    0.25000    0.11838    1.000
    C128     C        0.61040    0.10630    0.10684    1.000
    H69      H        0.58860    0.17900    0.10970    1.000
    H70      H        0.66940    0.10830    0.09790    1.000
    C129     C        0.64160    0.04650    0.12496    1.000
    H71      H        0.59750    0.06860    0.13560    1.000
    H72      H        0.71600    0.05890    0.12810    1.000
    C130     C        0.09430    0.22740    0.08858    1.000
    H73      H        0.12770    0.29720    0.08960    1.000
    H74      H        0.06720    0.21770    0.07580    1.000
    O67      O        0.02600    0.86320    0.07423    1.000
    O68      O        0.92920    0.01710    0.09567    1.000
    N8       N        0.53520    0.93440    0.10612    1.000
    O69      O        0.00860    0.47440    0.00058    1.000
    O70      O        0.44940    0.69590    0.00086    1.000
    C131     C        0.35580    0.68750    0.99743    1.000
    O71      O        0.27550    0.72920    0.99596    1.000
    O72      O        0.04330    0.29400    0.00470    1.000
    C132     C        0.05680    0.39390    0.00373    1.000
    C133     C        0.51900    0.04300    0.09904    1.000
    H75      H        0.45140    0.07160    0.10350    1.000
    H76      H        0.51950    0.04420    0.08520    1.000
    C134     C        0.34100    0.55410    0.00090    1.000
    C135     C        0.15130    0.10630    0.11330    1.000
    H77      H        0.19330    0.14840    0.12220    1.000
    H78      H        0.16710    0.03110    0.11530    1.000
    C136     C        0.17200    0.13730    0.09420    1.000
    H79      H        0.16250    0.07660    0.08580    1.000
    H80      H        0.24520    0.16210    0.09300    1.000
    C137     C        0.22230    0.51740    0.00320    1.000
    C138     C        0.41300    0.48500    0.00320    1.000
    C139     C        0.18170    0.41920    0.00160    1.000
    C140     C        0.25800    0.35500    0.00410    1.000
    Cu17     Cu       0.88199    0.87977    0.91687    1.000
    Cu18     Cu       0.81310    0.94081    0.88271    1.000
    Cu19     Cu       0.89640    0.27676    0.00453    1.000
    Cu20     Cu       0.84519    0.47478    0.99971    1.000
    O73      O        0.95670    0.97860    0.87555    1.000
    O74      O        0.80620    0.07970    0.89690    1.000
    O75      O        0.84580    0.79100    0.87644    1.000
    O76      O        0.67130    0.90150    0.89202    1.000
    O77      O        0.75720    0.51020    0.89224    1.000
    O78      O        0.89940    0.74130    0.90570    1.000
    O79      O        0.73020    0.85360    0.92095    1.000
    C141     C        0.45840    0.88930    0.90263    1.000
    H81      H        0.47280    0.89520    0.88970    1.000
    O80      O        0.47680    0.84470    0.97291    1.000
    C142     C        0.41870    0.87330    0.94159    1.000
    C143     C        0.86240    0.41880    0.93233    1.000
    H82      H        0.86680    0.48890    0.93670    1.000
    C144     C        0.84370    0.20870    0.92015    1.000
    C145     C        0.84170    0.29130    0.90722    1.000
    H83      H        0.83050    0.27660    0.89440    1.000
    N9       N        0.21330    0.00950    0.89707    1.000
    C146     C        0.65470    0.87610    0.90873    1.000
    C147     C        0.84420    0.48580    0.89895    1.000
    C148     C        0.02760    0.97500    0.88831    1.000
    C149     C        0.88630    0.72630    0.88863    1.000
    C150     C        0.39150    0.86640    0.96203    1.000
    C151     C        0.85650    0.39890    0.91321    1.000
    O81      O        0.89860    0.27990    0.97697    1.000
    C152     C        0.85660    0.22820    0.93947    1.000
    H84      H        0.86160    0.17240    0.94820    1.000
    C153     C        0.86170    0.33450    0.94534    1.000
    C154     C        0.83760    0.09660    0.91363    1.000
    C155     C        0.54060    0.87150    0.91539    1.000
    C156     C        0.26630    0.92010    0.89529    1.000
    O82      O        0.85440    0.44420    0.97217    1.000
    C157     C        0.33330    0.88910    0.92876    1.000
    H85      H        0.26340    0.89350    0.93320    1.000
    C158     C        0.35500    0.89820    0.90921    1.000
    C159     C        0.87230    0.35760    0.96657    1.000
    O83      O        0.30260    0.88260    0.96808    1.000
    C160     C        0.93150    0.62260    0.87981    1.000
    H86      H        0.89080    0.60170    0.86850    1.000
    C161     C        0.12740    0.03840    0.88446    1.000
    H87      H        0.15010    0.02500    0.87130    1.000
    C162     C        0.52010    0.86230    0.93515    1.000
    H88      H        0.57570    0.84890    0.94360    1.000
    O84      O        0.25000    0.85950    0.88162    1.000
    C163     C        0.10630    0.61040    0.89316    1.000
    H89      H        0.17900    0.58860    0.89030    1.000
    H90      H        0.10830    0.66940    0.90210    1.000
    C164     C        0.04650    0.64160    0.87504    1.000
    H91      H        0.06860    0.59750    0.86440    1.000
    H92      H        0.05890    0.71600    0.87190    1.000
    C165     C        0.22740    0.09430    0.91142    1.000
    H93      H        0.29720    0.12770    0.91040    1.000
    H94      H        0.21770    0.06720    0.92420    1.000
    O85      O        0.86320    0.02600    0.92577    1.000
    O86      O        0.01710    0.92920    0.90433    1.000
    N10      N        0.93440    0.53520    0.89388    1.000
    O87      O        0.47440    0.00860    0.99942    1.000
    O88      O        0.69590    0.44940    0.99914    1.000
    C166     C        0.68750    0.35580    0.00257    1.000
    O89      O        0.72920    0.27550    0.00404    1.000
    O90      O        0.29400    0.04330    0.99530    1.000
    C167     C        0.39390    0.05680    0.99627    1.000
    C168     C        0.04300    0.51900    0.90096    1.000
    H95      H        0.07160    0.45140    0.89650    1.000
    H96      H        0.04420    0.51950    0.91480    1.000
    C169     C        0.55410    0.34100    0.99910    1.000
    C170     C        0.10630    0.15130    0.88670    1.000
    H97      H        0.14840    0.19330    0.87780    1.000
    H98      H        0.03110    0.16710    0.88470    1.000
    C171     C        0.13730    0.17200    0.90580    1.000
    H99      H        0.07660    0.16250    0.91420    1.000
    H100     H        0.16210    0.24520    0.90700    1.000
    C172     C        0.51740    0.22230    0.99680    1.000
    C173     C        0.48500    0.41300    0.99680    1.000
    C174     C        0.41920    0.18170    0.99840    1.000
    C175     C        0.35500    0.25800    0.99590    1.000
    Cu21     Cu       0.11801    0.12023    0.41687    1.000
    Cu22     Cu       0.18690    0.05919    0.38271    1.000
    Cu23     Cu       0.10360    0.72324    0.50453    1.000
    Cu24     Cu       0.15481    0.52522    0.49971    1.000
    O91      O        0.04330    0.02140    0.37555    1.000
    O92      O        0.19380    0.92030    0.39690    1.000
    O93      O        0.15420    0.20900    0.37644    1.000
    O94      O        0.32870    0.09850    0.39202    1.000
    O95      O        0.24280    0.48980    0.39224    1.000
    O96      O        0.10060    0.25870    0.40570    1.000
    O97      O        0.26980    0.14640    0.42095    1.000
    C176     C        0.54160    0.11070    0.40263    1.000
    H101     H        0.52720    0.10480    0.38970    1.000
    O98      O        0.52320    0.15530    0.47291    1.000
    C177     C        0.58130    0.12670    0.44159    1.000
    C178     C        0.13760    0.58120    0.43233    1.000
    H102     H        0.13320    0.51110    0.43670    1.000
    C179     C        0.15630    0.79130    0.42015    1.000
    C180     C        0.15830    0.70870    0.40722    1.000
    H103     H        0.16950    0.72340    0.39440    1.000
    N11      N        0.78670    0.99050    0.39707    1.000
    C181     C        0.34530    0.12390    0.40873    1.000
    C182     C        0.15580    0.51420    0.39895    1.000
    C183     C        0.97240    0.02500    0.38831    1.000
    C184     C        0.11370    0.27370    0.38863    1.000
    C185     C        0.60850    0.13360    0.46203    1.000
    C186     C        0.14350    0.60110    0.41321    1.000
    O99      O        0.10140    0.72010    0.47697    1.000
    C187     C        0.14340    0.77180    0.43947    1.000
    H104     H        0.13840    0.82760    0.44820    1.000
    C188     C        0.13830    0.66550    0.44534    1.000
    C189     C        0.16240    0.90340    0.41363    1.000
    C190     C        0.45940    0.12850    0.41539    1.000
    C191     C        0.73370    0.07990    0.39529    1.000
    O100     O        0.14560    0.55580    0.47217    1.000
    C192     C        0.66670    0.11090    0.42876    1.000
    H105     H        0.73660    0.10650    0.43320    1.000
    C193     C        0.64500    0.10180    0.40921    1.000
    C194     C        0.12770    0.64240    0.46657    1.000
    O101     O        0.69740    0.11740    0.46808    1.000
    C195     C        0.06850    0.37740    0.37981    1.000
    H106     H        0.10920    0.39830    0.36850    1.000
    C196     C        0.87260    0.96160    0.38446    1.000
    H107     H        0.84990    0.97500    0.37130    1.000
    C197     C        0.47990    0.13770    0.43515    1.000
    H108     H        0.42430    0.15110    0.44360    1.000
    O102     O        0.75000    0.14050    0.38162    1.000
    C198     C        0.89370    0.38960    0.39316    1.000
    H109     H        0.82100    0.41140    0.39030    1.000
    H110     H        0.89170    0.33060    0.40210    1.000
    C199     C        0.95350    0.35840    0.37504    1.000
    H111     H        0.93140    0.40250    0.36440    1.000
    H112     H        0.94110    0.28400    0.37190    1.000
    C200     C        0.77260    0.90570    0.41142    1.000
    H113     H        0.70280    0.87230    0.41040    1.000
    H114     H        0.78230    0.93280    0.42420    1.000
    O103     O        0.13680    0.97400    0.42577    1.000
    O104     O        0.98290    0.07080    0.40433    1.000
    N12      N        0.06560    0.46480    0.39388    1.000
    O105     O        0.52560    0.99140    0.49942    1.000
    O106     O        0.30410    0.55060    0.49914    1.000
    C201     C        0.31250    0.64420    0.50257    1.000
    O107     O        0.27080    0.72450    0.50404    1.000
    O108     O        0.70600    0.95670    0.49530    1.000
    C202     C        0.60610    0.94320    0.49627    1.000
    C203     C        0.95700    0.48100    0.40096    1.000
    H115     H        0.92840    0.54860    0.39650    1.000
    H116     H        0.95580    0.48050    0.41480    1.000
    C204     C        0.44590    0.65900    0.49910    1.000
    C205     C        0.89370    0.84870    0.38670    1.000
    H117     H        0.85160    0.80670    0.37780    1.000
    H118     H        0.96890    0.83290    0.38470    1.000
    C206     C        0.86270    0.82800    0.40580    1.000
    H119     H        0.92340    0.83750    0.41420    1.000
    H120     H        0.83790    0.75480    0.40700    1.000
    C207     C        0.48260    0.77770    0.49680    1.000
    C208     C        0.51500    0.58700    0.49680    1.000
    C209     C        0.58080    0.81830    0.49840    1.000
    C210     C        0.64500    0.74200    0.49590    1.000
    Cu25     Cu       0.37977    0.61801    0.16687    1.000
    Cu26     Cu       0.44081    0.68690    0.13271    1.000
    Cu27     Cu       0.77676    0.60360    0.25453    1.000
    Cu28     Cu       0.97478    0.65481    0.24971    1.000
    O109     O        0.47860    0.54330    0.12555    1.000
    O110     O        0.57970    0.69380    0.14690    1.000
    O111     O        0.29100    0.65420    0.12644    1.000
    O112     O        0.40150    0.82870    0.14202    1.000
    O113     O        0.01020    0.74280    0.14224    1.000
    O114     O        0.24130    0.60060    0.15570    1.000
    O115     O        0.35360    0.76980    0.17095    1.000
    C211     C        0.38930    0.04160    0.15263    1.000
    H121     H        0.39520    0.02720    0.13970    1.000
    O116     O        0.34470    0.02320    0.22291    1.000
    C212     C        0.37330    0.08130    0.19159    1.000
    C213     C        0.91880    0.63760    0.18233    1.000
    H122     H        0.98890    0.63320    0.18670    1.000
    C214     C        0.70870    0.65630    0.17015    1.000
    C215     C        0.79130    0.65830    0.15722    1.000
    H123     H        0.77660    0.66950    0.14440    1.000
    N13      N        0.50950    0.28670    0.14707    1.000
    C216     C        0.37610    0.84530    0.15873    1.000
    C217     C        0.98580    0.65580    0.14895    1.000
    C218     C        0.47500    0.47240    0.13831    1.000
    C219     C        0.22630    0.61370    0.13863    1.000
    C220     C        0.36640    0.10850    0.21203    1.000
    C221     C        0.89890    0.64350    0.16321    1.000
    O117     O        0.77990    0.60140    0.22697    1.000
    C222     C        0.72820    0.64340    0.18947    1.000
    H124     H        0.67240    0.63840    0.19820    1.000
    C223     C        0.83450    0.63830    0.19534    1.000
    C224     C        0.59660    0.66240    0.16363    1.000
    C225     C        0.37150    0.95940    0.16539    1.000
    C226     C        0.42010    0.23370    0.14529    1.000
    O118     O        0.94420    0.64560    0.22217    1.000
    C227     C        0.38910    0.16670    0.17876    1.000
    H125     H        0.39350    0.23660    0.18320    1.000
    C228     C        0.39820    0.14500    0.15921    1.000
    C229     C        0.85760    0.62770    0.21657    1.000
    O119     O        0.38260    0.19740    0.21808    1.000
    C230     C        0.12260    0.56850    0.12981    1.000
    H126     H        0.10170    0.60920    0.11850    1.000
    C231     C        0.53840    0.37260    0.13446    1.000
    H127     H        0.52500    0.34990    0.12130    1.000
    C232     C        0.36230    0.97990    0.18515    1.000
    H128     H        0.34890    0.92430    0.19360    1.000
    O120     O        0.35950    0.25000    0.13162    1.000
    C233     C        0.11040    0.39370    0.14316    1.000
    H129     H        0.08860    0.32100    0.14030    1.000
    H130     H        0.16940    0.39170    0.15210    1.000
    C234     C        0.14160    0.45350    0.12504    1.000
    H131     H        0.09750    0.43140    0.11440    1.000
    H132     H        0.21600    0.44110    0.12190    1.000
    C235     C        0.59430    0.27260    0.16142    1.000
    H133     H        0.62770    0.20280    0.16040    1.000
    H134     H        0.56720    0.28230    0.17420    1.000
    O121     O        0.52600    0.63680    0.17577    1.000
    O122     O        0.42920    0.48290    0.15433    1.000
    N14      N        0.03520    0.56560    0.14388    1.000
    O123     O        0.50860    0.02560    0.24942    1.000
    O124     O        0.94940    0.80410    0.24914    1.000
    C236     C        0.85580    0.81250    0.25257    1.000
    O125     O        0.77550    0.77080    0.25404    1.000
    O126     O        0.54330    0.20600    0.24530    1.000
    C237     C        0.55680    0.10610    0.24627    1.000
    C238     C        0.01900    0.45700    0.15096    1.000
    H135     H        0.95140    0.42840    0.14650    1.000
    H136     H        0.01950    0.45580    0.16480    1.000
    C239     C        0.84100    0.94590    0.24910    1.000
    C240     C        0.65130    0.39370    0.13670    1.000
    H137     H        0.69330    0.35160    0.12780    1.000
    H138     H        0.66710    0.46890    0.13470    1.000
    C241     C        0.67200    0.36270    0.15580    1.000
    H139     H        0.66250    0.42340    0.16420    1.000
    H140     H        0.74520    0.33790    0.15700    1.000
    C242     C        0.72230    0.98260    0.24680    1.000
    C243     C        0.91300    0.01500    0.24680    1.000
    C244     C        0.68170    0.08080    0.24840    1.000
    C245     C        0.75800    0.14500    0.24590    1.000
    Cu29     Cu       0.62023    0.38199    0.66687    1.000
    Cu30     Cu       0.55919    0.31310    0.63271    1.000
    Cu31     Cu       0.22324    0.39640    0.75453    1.000
    Cu32     Cu       0.02522    0.34519    0.74971    1.000
    O127     O        0.52140    0.45670    0.62555    1.000
    O128     O        0.42030    0.30620    0.64690    1.000
    O129     O        0.70900    0.34580    0.62644    1.000
    O130     O        0.59850    0.17130    0.64202    1.000
    O131     O        0.98980    0.25720    0.64224    1.000
    O132     O        0.75870    0.39940    0.65570    1.000
    O133     O        0.64640    0.23020    0.67095    1.000
    C246     C        0.61070    0.95840    0.65263    1.000
    H141     H        0.60480    0.97280    0.63970    1.000
    O134     O        0.65530    0.97680    0.72291    1.000
    C247     C        0.62670    0.91870    0.69159    1.000
    C248     C        0.08120    0.36240    0.68233    1.000
    H142     H        0.01110    0.36680    0.68670    1.000
    C249     C        0.29130    0.34370    0.67015    1.000
    C250     C        0.20870    0.34170    0.65722    1.000
    H143     H        0.22340    0.33050    0.64440    1.000
    N15      N        0.49050    0.71330    0.64707    1.000
    C251     C        0.62390    0.15470    0.65873    1.000
    C252     C        0.01420    0.34420    0.64895    1.000
    C253     C        0.52500    0.52760    0.63831    1.000
    C254     C        0.77370    0.38630    0.63863    1.000
    C255     C        0.63360    0.89150    0.71203    1.000
    C256     C        0.10110    0.35650    0.66321    1.000
    O135     O        0.22010    0.39860    0.72697    1.000
    C257     C        0.27180    0.35660    0.68947    1.000
    H144     H        0.32760    0.36160    0.69820    1.000
    C258     C        0.16550    0.36170    0.69534    1.000
    C259     C        0.40340    0.33760    0.66363    1.000
    C260     C        0.62850    0.04060    0.66539    1.000
    C261     C        0.57990    0.76630    0.64529    1.000
    O136     O        0.05580    0.35440    0.72217    1.000
    C262     C        0.61090    0.83330    0.67876    1.000
    H145     H        0.60650    0.76340    0.68320    1.000
    C263     C        0.60180    0.85500    0.65921    1.000
    C264     C        0.14240    0.37230    0.71657    1.000
    O137     O        0.61740    0.80260    0.71808    1.000
    C265     C        0.87740    0.43150    0.62981    1.000
    H146     H        0.89830    0.39080    0.61850    1.000
    C266     C        0.46160    0.62740    0.63446    1.000
    H147     H        0.47500    0.65010    0.62130    1.000
    C267     C        0.63770    0.02010    0.68515    1.000
    H148     H        0.65110    0.07570    0.69360    1.000
    O138     O        0.64050    0.75000    0.63162    1.000
    C268     C        0.88960    0.60630    0.64316    1.000
    H149     H        0.91140    0.67900    0.64030    1.000
    H150     H        0.83060    0.60830    0.65210    1.000
    C269     C        0.85840    0.54650    0.62504    1.000
    H151     H        0.90250    0.56860    0.61440    1.000
    H152     H        0.78400    0.55890    0.62190    1.000
    C270     C        0.40570    0.72740    0.66142    1.000
    H153     H        0.37230    0.79720    0.66040    1.000
    H154     H        0.43280    0.71770    0.67420    1.000
    O139     O        0.47400    0.36320    0.67577    1.000
    O140     O        0.57080    0.51710    0.65433    1.000
    N16      N        0.96480    0.43440    0.64388    1.000
    O141     O        0.49140    0.97440    0.74942    1.000
    O142     O        0.05060    0.19590    0.74914    1.000
    C271     C        0.14420    0.18750    0.75257    1.000
    O143     O        0.22450    0.22920    0.75404    1.000
    O144     O        0.45670    0.79400    0.74530    1.000
    C272     C        0.44320    0.89390    0.74627    1.000
    C273     C        0.98100    0.54300    0.65096    1.000
    H155     H        0.04860    0.57160    0.64650    1.000
    H156     H        0.98050    0.54420    0.66480    1.000
    C274     C        0.15900    0.05410    0.74910    1.000
    C275     C        0.34870    0.60630    0.63670    1.000
    H157     H        0.30670    0.64840    0.62780    1.000
    H158     H        0.33290    0.53110    0.63470    1.000
    C276     C        0.32800    0.63730    0.65580    1.000
    H159     H        0.33750    0.57660    0.66420    1.000
    H160     H        0.25480    0.66210    0.65700    1.000
    C277     C        0.27770    0.01740    0.74680    1.000
    C278     C        0.08700    0.98500    0.74680    1.000
    C279     C        0.31830    0.91920    0.74840    1.000
    C280     C        0.24200    0.85500    0.74590    1.000
    C281     C        0.12870    0.87130    0.75000    1.000
    C282     C        0.87130    0.12870    0.25000    1.000
    C283     C        0.62870    0.62870    0.50000    1.000
    C284     C        0.37130    0.37130    0.00000    1.000
