# CIF file generated by openbabel 3.1.0, see https://openbabel.org
data_I
_chemical_name_common 'HAJLOU_clean'
_cell_length_a 10.9672
_cell_length_b 15.0587
_cell_length_c 15.0587
_cell_angle_alpha 65.6948
_cell_angle_beta 75.9502
_cell_angle_gamma 104.05
_space_group_name_H-M_alt 'P 1'
_space_group_name_Hall 'P 1'
loop_
    _symmetry_equiv_pos_as_xyz
    x,y,z
loop_
    _atom_site_label
    _atom_site_type_symbol
    _atom_site_fract_x
    _atom_site_fract_y
    _atom_site_fract_z
    _atom_site_occupancy
    Fe1      Fe       0.50000    0.50000    0.50000    1.000
    H1       H        0.23080    0.34160    0.53600    1.000
    H2       H        0.47640    0.68910    0.29400    1.000
    H3       H        0.34780    0.70920    0.27090    1.000
    H4       H        0.44350    0.67800    0.20040    1.000
    H5       H        0.03170    0.23730    0.53190    1.000
    H6       H        0.04320    0.27290    0.41330    1.000
    H7       H        0.95090    0.30680    0.48290    1.000
    H8       H        0.02830    0.71580    0.23670    1.000
    H9       H        0.16540    0.71880    0.25710    1.000
    H10      H        0.02080    0.63300    0.34890    1.000
    H11      H        0.12900    0.36920    0.14660    1.000
    H12      H        0.11880    0.32480    0.26600    1.000
    H13      H        0.25910    0.41230    0.16990    1.000
    H14      H        0.99130    0.63130    0.13420    1.000
    H15      H        0.76920    0.65840    0.46400    1.000
    H16      H        0.52360    0.31090    0.70600    1.000
    H17      H        0.65220    0.29080    0.72910    1.000
    H18      H        0.55650    0.32200    0.79960    1.000
    H19      H        0.96830    0.76270    0.46810    1.000
    H20      H        0.95680    0.72710    0.58670    1.000
    H21      H        0.04910    0.69320    0.51710    1.000
    H22      H        0.97170    0.28420    0.76330    1.000
    H23      H        0.83460    0.28120    0.74290    1.000
    H24      H        0.97920    0.36700    0.65110    1.000
    H25      H        0.87100    0.63080    0.85340    1.000
    H26      H        0.88120    0.67520    0.73400    1.000
    H27      H        0.74090    0.58770    0.83010    1.000
    H28      H        0.00870    0.36870    0.86580    1.000
    C1       C        0.27458    0.34831    0.73867    1.000
    C2       C        0.31601    0.55259    0.34646    1.000
    C3       C        0.20026    0.49137    0.34059    1.000
    C4       C        0.15362    0.39150    0.42804    1.000
    C5       C        0.40344    0.66705    0.27153    1.000
    C6       C        0.03477    0.29388    0.46737    1.000
    C7       C        0.08465    0.59721    0.23346    1.000
    C8       C        0.14014    0.52145    0.26003    1.000
    C9       C        0.11641    0.47245    0.19972    1.000
    C10      C        0.07382    0.67266    0.27240    1.000
    C11      C        0.15950    0.38745    0.19515    1.000
    C12      C        0.72542    0.65169    0.26133    1.000
    C13      C        0.68399    0.44741    0.65354    1.000
    C14      C        0.79974    0.50863    0.65941    1.000
    C15      C        0.84638    0.60850    0.57196    1.000
    C16      C        0.59656    0.33295    0.72847    1.000
    C17      C        0.96523    0.70612    0.53263    1.000
    C18      C        0.91535    0.40279    0.76654    1.000
    C19      C        0.85986    0.47855    0.73997    1.000
    C20      C        0.88359    0.52755    0.80028    1.000
    C21      C        0.92618    0.32734    0.72760    1.000
    C22      C        0.84050    0.61255    0.80485    1.000
    S1       S        0.18150    0.28057    0.86536    1.000
    S2       S        0.81850    0.71943    0.13464    1.000
    N1       N        0.34324    0.39629    0.64853    1.000
    N2       N        0.33935    0.49339    0.43072    1.000
    N3       N        0.23906    0.39598    0.47836    1.000
    N4       N        0.04913    0.51418    0.14068    1.000
    N5       N        0.03222    0.59056    0.16285    1.000
    N6       N        0.65676    0.60371    0.35147    1.000
    N7       N        0.66065    0.50661    0.56928    1.000
    N8       N        0.76094    0.60402    0.52164    1.000
    N9       N        0.95087    0.48582    0.85932    1.000
    N10      N        0.96778    0.40944    0.83715    1.000
    Fe2      Fe       0.00000    0.50000    0.00000    1.000
    H29      H        0.76680    0.53600    0.12240    1.000
    H30      H        0.77040    0.29400    0.01690    1.000
    H31      H        0.61870    0.27090    0.01990    1.000
    H32      H        0.64390    0.20040    0.12160    1.000
    H33      H        0.56360    0.53190    0.23080    1.000
    H34      H        0.45650    0.41330    0.31380    1.000
    H35      H        0.43380    0.48290    0.21030    1.000
    H36      H        0.26500    0.23670    0.04750    1.000
    H37      H        0.42250    0.25710    0.02410    1.000
    H38      H        0.36970    0.34890    0.01810    1.000
    H39      H        0.27560    0.14660    0.48420    1.000
    H40      H        0.38480    0.26600    0.40920    1.000
    H41      H        0.42900    0.16990    0.41780    1.000
    H42      H        0.12550    0.13420    0.23450    1.000
    H43      H        0.23320    0.46400    0.87760    1.000
    H44      H        0.22960    0.70600    0.98310    1.000
    H45      H        0.38130    0.72910    0.98010    1.000
    H46      H        0.35610    0.79960    0.87840    1.000
    H47      H        0.43640    0.46810    0.76920    1.000
    H48      H        0.54350    0.58670    0.68620    1.000
    H49      H        0.56620    0.51710    0.78970    1.000
    H50      H        0.73500    0.76330    0.95250    1.000
    H51      H        0.57750    0.74290    0.97590    1.000
    H52      H        0.63030    0.65110    0.98190    1.000
    H53      H        0.72440    0.85340    0.51580    1.000
    H54      H        0.61520    0.73400    0.59080    1.000
    H55      H        0.57100    0.83010    0.58220    1.000
    H56      H        0.87450    0.86580    0.76550    1.000
    C23      C        0.01325    0.73867    0.91302    1.000
    C24      C        0.66247    0.34646    0.10095    1.000
    C25      C        0.54085    0.34059    0.16804    1.000
    C26      C        0.58166    0.42804    0.18046    1.000
    C27      C        0.67497    0.27153    0.06142    1.000
    C28      C        0.50214    0.46737    0.23875    1.000
    C29      C        0.31811    0.23346    0.16933    1.000
    C30      C        0.40017    0.26003    0.21852    1.000
    C31      C        0.31613    0.19972    0.32783    1.000
    C32      C        0.34622    0.27240    0.05494    1.000
    C33      C        0.35465    0.19515    0.41740    1.000
    C34      C        0.98675    0.26133    0.08698    1.000
    C35      C        0.33753    0.65354    0.89905    1.000
    C36      C        0.45915    0.65941    0.83196    1.000
    C37      C        0.41834    0.57196    0.81954    1.000
    C38      C        0.32503    0.72847    0.93858    1.000
    C39      C        0.49786    0.53263    0.76125    1.000
    C40      C        0.68189    0.76654    0.83067    1.000
    C41      C        0.59983    0.73997    0.78148    1.000
    C42      C        0.68387    0.80028    0.67217    1.000
    C43      C        0.65378    0.72760    0.94506    1.000
    C44      C        0.64535    0.80485    0.58260    1.000
    S3       S        0.04686    0.86536    0.85407    1.000
    S4       S        0.95314    0.13464    0.14593    1.000
    N11      N        0.99177    0.64853    0.95518    1.000
    N12      N        0.77007    0.43072    0.07589    1.000
    N13      N        0.71742    0.47836    0.12566    1.000
    N14      N        0.18981    0.14068    0.34514    1.000
    N15      N        0.19507    0.16285    0.24659    1.000
    N16      N        0.00823    0.35147    0.04482    1.000
    N17      N        0.22993    0.56928    0.92411    1.000
    N18      N        0.28258    0.52164    0.87434    1.000
    N19      N        0.81019    0.85932    0.65486    1.000
    N20      N        0.80493    0.83715    0.75341    1.000
    Fe3      Fe       0.00000    0.00000    0.50000    1.000
    H57      H        0.88920    0.12240    0.34160    1.000
    H58      H        0.78730    0.01690    0.68910    1.000
    H59      H        0.63860    0.01990    0.70920    1.000
    H60      H        0.76550    0.12160    0.67800    1.000
    H61      H        0.79440    0.23080    0.23730    1.000
    H62      H        0.77030    0.31380    0.27290    1.000
    H63      H        0.64410    0.21030    0.30680    1.000
    H64      H        0.31250    0.04750    0.71580    1.000
    H65      H        0.44660    0.02410    0.71880    1.000
    H66      H        0.38780    0.01810    0.63300    1.000
    H67      H        0.75980    0.48420    0.36920    1.000
    H68      H        0.79400    0.40920    0.32480    1.000
    H69      H        0.84680    0.41780    0.41230    1.000
    H70      H        0.36000    0.23450    0.63130    1.000
    H71      H        0.11080    0.87760    0.65840    1.000
    H72      H        0.21270    0.98310    0.31090    1.000
    H73      H        0.36140    0.98010    0.29080    1.000
    H74      H        0.23450    0.87840    0.32200    1.000
    H75      H        0.20560    0.76920    0.76270    1.000
    H76      H        0.22970    0.68620    0.72710    1.000
    H77      H        0.35590    0.78970    0.69320    1.000
    H78      H        0.68750    0.95250    0.28420    1.000
    H79      H        0.55340    0.97590    0.28120    1.000
    H80      H        0.61220    0.98190    0.36700    1.000
    H81      H        0.24020    0.51580    0.63080    1.000
    H82      H        0.20600    0.59080    0.67520    1.000
    H83      H        0.15320    0.58220    0.58770    1.000
    H84      H        0.64000    0.76550    0.36870    1.000
    C45      C        0.92627    0.91302    0.34831    1.000
    C46      C        0.76342    0.10095    0.55259    1.000
    C47      C        0.70889    0.16804    0.49137    1.000
    C48      C        0.76212    0.18046    0.39150    1.000
    C49      C        0.73639    0.06142    0.66705    1.000
    C50      C        0.74089    0.23875    0.29388    1.000
    C51      C        0.48744    0.16933    0.59721    1.000
    C52      C        0.61869    0.21852    0.52145    1.000
    C53      C        0.64396    0.32783    0.47245    1.000
    C54      C        0.40116    0.05494    0.67266    1.000
    C55      C        0.77205    0.41740    0.38745    1.000
    C56      C        0.07373    0.08698    0.65169    1.000
    C57      C        0.23658    0.89905    0.44741    1.000
    C58      C        0.29111    0.83196    0.50863    1.000
    C59      C        0.23788    0.81954    0.60850    1.000
    C60      C        0.26361    0.93858    0.33295    1.000
    C61      C        0.25911    0.76125    0.70612    1.000
    C62      C        0.51256    0.83067    0.40279    1.000
    C63      C        0.38131    0.78148    0.47855    1.000
    C64      C        0.35604    0.67217    0.52755    1.000
    C65      C        0.59884    0.94506    0.32734    1.000
    C66      C        0.22795    0.58260    0.61255    1.000
    S5       S        0.90093    0.85407    0.28057    1.000
    S6       S        0.09907    0.14593    0.71943    1.000
    N21      N        0.94695    0.95518    0.39629    1.000
    N22      N        0.84596    0.07589    0.49339    1.000
    N23      N        0.84308    0.12566    0.39598    1.000
    N24      N        0.53495    0.34514    0.51418    1.000
    N25      N        0.44166    0.24659    0.59056    1.000
    N26      N        0.05305    0.04482    0.60371    1.000
    N27      N        0.15404    0.92411    0.50661    1.000
    N28      N        0.15692    0.87434    0.60402    1.000
    N29      N        0.46505    0.65486    0.48582    1.000
    N30      N        0.55834    0.75341    0.40944    1.000
