# CIF file generated by openbabel 3.1.0, see https://openbabel.org
data_I
_chemical_name_common 'image0'
_cell_length_a 7.6681
_cell_length_b 31.909
_cell_length_c 15.4268
_cell_angle_alpha 90
_cell_angle_beta 90
_cell_angle_gamma 90
_space_group_name_H-M_alt 'P 1'
_space_group_name_Hall 'P 1'
loop_
    _symmetry_equiv_pos_as_xyz
    x,y,z
loop_
    _atom_site_label
    _atom_site_type_symbol
    _atom_site_fract_x
    _atom_site_fract_y
    _atom_site_fract_z
    _atom_site_occupancy
    Cu1      Cu       0.08571    0.06192    0.32611    1.000
    Cu2      Cu       0.07830    0.03422    0.02995    1.000
    Cu3      Cu       0.24911    0.22911    0.87333    1.000
    I1       I        0.26207    0.02377    0.45058    1.000
    I2       I        0.25545    0.04787    0.17888    1.000
    C1       C        0.48340    0.16950    0.92960    1.000
    C2       C        0.30550    0.14860    0.93550    1.000
    C3       C        0.28030    0.10810    0.96490    1.000
    H1       H        0.37580    0.09240    0.98300    1.000
    C4       C        0.98790    0.11420    0.93920    1.000
    H2       H        0.87630    0.10280    0.93880    1.000
    C5       C        0.01250    0.15500    0.91020    1.000
    H3       H        0.91700    0.17060    0.89160    1.000
    C6       C        0.48670    0.20570    0.36090    1.000
    C7       C        0.31070    0.18510    0.35990    1.000
    C8       C        0.28620    0.14200    0.35030    1.000
    H4       H        0.38250    0.12440    0.34540    1.000
    C9       C        0.99090    0.15240    0.35810    1.000
    H5       H        0.87810    0.14160    0.35840    1.000
    C10      C        0.01390    0.19504    0.36790    1.000
    H6       H        0.91730    0.21240    0.37440    1.000
    N1       N        0.12090    0.09112    0.96770    1.000
    N2       N        0.17120    0.17226    0.90880    1.000
    N3       N        0.12610    0.12576    0.34810    1.000
    N4       N        0.17430    0.21159    0.36810    1.000
    O1       O        0.47890    0.20715    0.89930    1.000
    O2       O        0.61220    0.15115    0.95460    1.000
    O3       O        0.61890    0.18490    0.35550    1.000
    O4       O        0.48340    0.24600    0.36590    1.000
    Cu4      Cu       0.41429    0.43808    0.82611    1.000
    Cu5      Cu       0.42170    0.46578    0.52995    1.000
    Cu6      Cu       0.25089    0.27089    0.37333    1.000
    I3       I        0.23793    0.47623    0.95058    1.000
    I4       I        0.24455    0.45213    0.67888    1.000
    C11      C        0.01660    0.33050    0.42960    1.000
    C12      C        0.19450    0.35140    0.43550    1.000
    C13      C        0.21970    0.39190    0.46490    1.000
    H7       H        0.12420    0.40760    0.48300    1.000
    C14      C        0.51210    0.38580    0.43920    1.000
    H8       H        0.62370    0.39720    0.43880    1.000
    C15      C        0.48750    0.34500    0.41020    1.000
    H9       H        0.58300    0.32940    0.39160    1.000
    C16      C        0.01330    0.29430    0.86090    1.000
    C17      C        0.18930    0.31490    0.85990    1.000
    C18      C        0.21380    0.35800    0.85030    1.000
    H10      H        0.11750    0.37560    0.84540    1.000
    C19      C        0.50910    0.34760    0.85810    1.000
    H11      H        0.62190    0.35840    0.85840    1.000
    C20      C        0.48610    0.30496    0.86790    1.000
    H12      H        0.58270    0.28760    0.87440    1.000
    N5       N        0.37910    0.40888    0.46770    1.000
    N6       N        0.32880    0.32774    0.40880    1.000
    N7       N        0.37390    0.37424    0.84810    1.000
    N8       N        0.32570    0.28841    0.86810    1.000
    O5       O        0.02110    0.29285    0.39930    1.000
    O6       O        0.88780    0.34885    0.45460    1.000
    O7       O        0.88110    0.31510    0.85550    1.000
    O8       O        0.01660    0.25400    0.86590    1.000
    Cu7      Cu       0.91429    0.06192    0.17389    1.000
    Cu8      Cu       0.92170    0.03422    0.47005    1.000
    Cu9      Cu       0.75089    0.22911    0.62667    1.000
    I5       I        0.73793    0.02377    0.04942    1.000
    I6       I        0.74455    0.04787    0.32112    1.000
    C21      C        0.51660    0.16950    0.57040    1.000
    C22      C        0.69450    0.14860    0.56450    1.000
    C23      C        0.71970    0.10810    0.53510    1.000
    H13      H        0.62420    0.09240    0.51700    1.000
    C24      C        0.01210    0.11420    0.56080    1.000
    H14      H        0.12370    0.10280    0.56120    1.000
    C25      C        0.98750    0.15500    0.58980    1.000
    H15      H        0.08300    0.17060    0.60840    1.000
    C26      C        0.51330    0.20570    0.13910    1.000
    C27      C        0.68930    0.18510    0.14010    1.000
    C28      C        0.71380    0.14200    0.14970    1.000
    H16      H        0.61750    0.12440    0.15460    1.000
    C29      C        0.00910    0.15240    0.14190    1.000
    H17      H        0.12190    0.14160    0.14160    1.000
    C30      C        0.98610    0.19504    0.13210    1.000
    H18      H        0.08270    0.21240    0.12560    1.000
    N9       N        0.87910    0.09112    0.53230    1.000
    N10      N        0.82880    0.17226    0.59120    1.000
    N11      N        0.87390    0.12576    0.15190    1.000
    N12      N        0.82570    0.21159    0.13190    1.000
    O9       O        0.52110    0.20715    0.60070    1.000
    O10      O        0.38780    0.15115    0.54540    1.000
    O11      O        0.38110    0.18490    0.14450    1.000
    O12      O        0.51660    0.24600    0.13410    1.000
    Cu10     Cu       0.58571    0.43808    0.67389    1.000
    Cu11     Cu       0.57830    0.46578    0.97005    1.000
    Cu12     Cu       0.74911    0.27089    0.12667    1.000
    I7       I        0.76207    0.47623    0.54942    1.000
    I8       I        0.75545    0.45213    0.82112    1.000
    C31      C        0.98340    0.33050    0.07040    1.000
    C32      C        0.80550    0.35140    0.06450    1.000
    C33      C        0.78030    0.39190    0.03510    1.000
    H19      H        0.87580    0.40760    0.01700    1.000
    C34      C        0.48790    0.38580    0.06080    1.000
    H20      H        0.37630    0.39720    0.06120    1.000
    C35      C        0.51250    0.34500    0.08980    1.000
    H21      H        0.41700    0.32940    0.10840    1.000
    C36      C        0.98670    0.29430    0.63910    1.000
    C37      C        0.81070    0.31490    0.64010    1.000
    C38      C        0.78620    0.35800    0.64970    1.000
    H22      H        0.88250    0.37560    0.65460    1.000
    C39      C        0.49090    0.34760    0.64190    1.000
    H23      H        0.37810    0.35840    0.64160    1.000
    C40      C        0.51390    0.30496    0.63210    1.000
    H24      H        0.41730    0.28760    0.62560    1.000
    N13      N        0.62090    0.40888    0.03230    1.000
    N14      N        0.67120    0.32774    0.09120    1.000
    N15      N        0.62610    0.37424    0.65190    1.000
    N16      N        0.67430    0.28841    0.63190    1.000
    O13      O        0.97890    0.29285    0.10070    1.000
    O14      O        0.11220    0.34885    0.04540    1.000
    O15      O        0.11890    0.31510    0.64450    1.000
    O16      O        0.98340    0.25400    0.63410    1.000
    Cu13     Cu       0.91429    0.93808    0.67389    1.000
    Cu14     Cu       0.92170    0.96578    0.97005    1.000
    Cu15     Cu       0.75089    0.77089    0.12667    1.000
    I9       I        0.73793    0.97623    0.54942    1.000
    I10      I        0.74455    0.95213    0.82112    1.000
    C41      C        0.51660    0.83050    0.07040    1.000
    C42      C        0.69450    0.85140    0.06450    1.000
    C43      C        0.71970    0.89190    0.03510    1.000
    H25      H        0.62420    0.90760    0.01700    1.000
    C44      C        0.01210    0.88580    0.06080    1.000
    H26      H        0.12370    0.89720    0.06120    1.000
    C45      C        0.98750    0.84500    0.08980    1.000
    H27      H        0.08300    0.82940    0.10840    1.000
    C46      C        0.51330    0.79430    0.63910    1.000
    C47      C        0.68930    0.81490    0.64010    1.000
    C48      C        0.71380    0.85800    0.64970    1.000
    H28      H        0.61750    0.87560    0.65460    1.000
    C49      C        0.00910    0.84760    0.64190    1.000
    H29      H        0.12190    0.85840    0.64160    1.000
    C50      C        0.98610    0.80496    0.63210    1.000
    H30      H        0.08270    0.78760    0.62560    1.000
    N17      N        0.87910    0.90888    0.03230    1.000
    N18      N        0.82880    0.82774    0.09120    1.000
    N19      N        0.87390    0.87424    0.65190    1.000
    N20      N        0.82570    0.78841    0.63190    1.000
    O17      O        0.52110    0.79285    0.10070    1.000
    O18      O        0.38780    0.84885    0.04540    1.000
    O19      O        0.38110    0.81510    0.64450    1.000
    O20      O        0.51660    0.75400    0.63410    1.000
    Cu16     Cu       0.58571    0.56192    0.17389    1.000
    Cu17     Cu       0.57830    0.53422    0.47005    1.000
    Cu18     Cu       0.74911    0.72911    0.62667    1.000
    I11      I        0.76207    0.52377    0.04942    1.000
    I12      I        0.75545    0.54787    0.32112    1.000
    C51      C        0.98340    0.66950    0.57040    1.000
    C52      C        0.80550    0.64860    0.56450    1.000
    C53      C        0.78030    0.60810    0.53510    1.000
    H31      H        0.87580    0.59240    0.51700    1.000
    C54      C        0.48790    0.61420    0.56080    1.000
    H32      H        0.37630    0.60280    0.56120    1.000
    C55      C        0.51250    0.65500    0.58980    1.000
    H33      H        0.41700    0.67060    0.60840    1.000
    C56      C        0.98670    0.70570    0.13910    1.000
    C57      C        0.81070    0.68510    0.14010    1.000
    C58      C        0.78620    0.64200    0.14970    1.000
    H34      H        0.88250    0.62440    0.15460    1.000
    C59      C        0.49090    0.65240    0.14190    1.000
    H35      H        0.37810    0.64160    0.14160    1.000
    C60      C        0.51390    0.69504    0.13210    1.000
    H36      H        0.41730    0.71240    0.12560    1.000
    N21      N        0.62090    0.59112    0.53230    1.000
    N22      N        0.67120    0.67226    0.59120    1.000
    N23      N        0.62610    0.62576    0.15190    1.000
    N24      N        0.67430    0.71159    0.13190    1.000
    O21      O        0.97890    0.70715    0.60070    1.000
    O22      O        0.11220    0.65115    0.54540    1.000
    O23      O        0.11890    0.68490    0.14450    1.000
    O24      O        0.98340    0.74600    0.13410    1.000
    Cu19     Cu       0.08571    0.93808    0.82611    1.000
    Cu20     Cu       0.07830    0.96578    0.52995    1.000
    Cu21     Cu       0.24911    0.77089    0.37333    1.000
    I13      I        0.26207    0.97623    0.95058    1.000
    I14      I        0.25545    0.95213    0.67888    1.000
    C61      C        0.48340    0.83050    0.42960    1.000
    C62      C        0.30550    0.85140    0.43550    1.000
    C63      C        0.28030    0.89190    0.46490    1.000
    H37      H        0.37580    0.90760    0.48300    1.000
    C64      C        0.98790    0.88580    0.43920    1.000
    H38      H        0.87630    0.89720    0.43880    1.000
    C65      C        0.01250    0.84500    0.41020    1.000
    H39      H        0.91700    0.82940    0.39160    1.000
    C66      C        0.48670    0.79430    0.86090    1.000
    C67      C        0.31070    0.81490    0.85990    1.000
    C68      C        0.28620    0.85800    0.85030    1.000
    H40      H        0.38250    0.87560    0.84540    1.000
    C69      C        0.99090    0.84760    0.85810    1.000
    H41      H        0.87810    0.85840    0.85840    1.000
    C70      C        0.01390    0.80496    0.86790    1.000
    H42      H        0.91730    0.78760    0.87440    1.000
    N25      N        0.12090    0.90888    0.46770    1.000
    N26      N        0.17120    0.82774    0.40880    1.000
    N27      N        0.12610    0.87424    0.84810    1.000
    N28      N        0.17430    0.78841    0.86810    1.000
    O25      O        0.47890    0.79285    0.39930    1.000
    O26      O        0.61220    0.84885    0.45460    1.000
    O27      O        0.61890    0.81510    0.85550    1.000
    O28      O        0.48340    0.75400    0.86590    1.000
    Cu22     Cu       0.41429    0.56192    0.32611    1.000
    Cu23     Cu       0.42170    0.53422    0.02995    1.000
    Cu24     Cu       0.25089    0.72911    0.87333    1.000
    I15      I        0.23793    0.52377    0.45058    1.000
    I16      I        0.24455    0.54787    0.17888    1.000
    C71      C        0.01660    0.66950    0.92960    1.000
    C72      C        0.19450    0.64860    0.93550    1.000
    C73      C        0.21970    0.60810    0.96490    1.000
    H43      H        0.12420    0.59240    0.98300    1.000
    C74      C        0.51210    0.61420    0.93920    1.000
    H44      H        0.62370    0.60280    0.93880    1.000
    C75      C        0.48750    0.65500    0.91020    1.000
    H45      H        0.58300    0.67060    0.89160    1.000
    C76      C        0.01330    0.70570    0.36090    1.000
    C77      C        0.18930    0.68510    0.35990    1.000
    C78      C        0.21380    0.64200    0.35030    1.000
    H46      H        0.11750    0.62440    0.34540    1.000
    C79      C        0.50910    0.65240    0.35810    1.000
    H47      H        0.62190    0.64160    0.35840    1.000
    C80      C        0.48610    0.69504    0.36790    1.000
    H48      H        0.58270    0.71240    0.37440    1.000
    N29      N        0.37910    0.59112    0.96770    1.000
    N30      N        0.32880    0.67226    0.90880    1.000
    N31      N        0.37390    0.62576    0.34810    1.000
    N32      N        0.32570    0.71159    0.36810    1.000
    O29      O        0.02110    0.70715    0.89930    1.000
    O30      O        0.88780    0.65115    0.95460    1.000
    O31      O        0.88110    0.68490    0.35550    1.000
    O32      O        0.01660    0.74600    0.36590    1.000
