# CIF file generated by openbabel 3.1.0, see https://openbabel.org
data_I
_chemical_name_common 'image0'
_cell_length_a 12.7792
_cell_length_b 14.8175
_cell_length_c 15.4737
_cell_angle_alpha 90
_cell_angle_beta 90
_cell_angle_gamma 90
_space_group_name_H-M_alt 'P 1'
_space_group_name_Hall 'P 1'
loop_
    _symmetry_equiv_pos_as_xyz
    x,y,z
loop_
    _atom_site_label
    _atom_site_type_symbol
    _atom_site_fract_x
    _atom_site_fract_y
    _atom_site_fract_z
    _atom_site_occupancy
    Cd1      Cd       0.23507    0.71983    0.27248    1.000
    Cd2      Cd       0.43340    0.59261    0.40875    1.000
    Cl1      Cl       0.10030    0.79920    0.19324    1.000
    O1       O        0.25990    0.56250    0.41430    1.000
    O2       O        0.14550    0.67080    0.38230    1.000
    O3       O        0.88130    0.76010    0.60180    1.000
    O4       O        0.86410    0.67860    0.71890    1.000
    O5       O        0.07890    0.40890    0.76430    1.000
    O6       O        0.21860    0.38700    0.68270    1.000
    C1       C        0.18220    0.61060    0.43160    1.000
    C2       C        0.90890    0.69720    0.65050    1.000
    C3       C        0.13790    0.42840    0.70230    1.000
    C4       C        0.12670    0.59440    0.51450    1.000
    C5       C        0.04710    0.65230    0.54320    1.000
    H1       H        0.02820    0.70170    0.50950    1.000
    C6       C        0.99610    0.63690    0.62090    1.000
    C7       C        0.02610    0.56360    0.67220    1.000
    H2       H        0.99200    0.55260    0.72420    1.000
    C8       C        0.10630    0.50760    0.64560    1.000
    C9       C        0.15540    0.52360    0.56880    1.000
    H3       H        0.20990    0.48590    0.55200    1.000
    Cd3      Cd       0.26493    0.28017    0.77248    1.000
    Cd4      Cd       0.06660    0.40739    0.90875    1.000
    Cl2      Cl       0.39970    0.20080    0.69324    1.000
    O7       O        0.24010    0.43750    0.91430    1.000
    O8       O        0.35450    0.32920    0.88230    1.000
    O9       O        0.61870    0.23990    0.10180    1.000
    O10      O        0.63590    0.32140    0.21890    1.000
    O11      O        0.42110    0.59110    0.26430    1.000
    O12      O        0.28140    0.61300    0.18270    1.000
    C10      C        0.31780    0.38940    0.93160    1.000
    C11      C        0.59110    0.30280    0.15050    1.000
    C12      C        0.36210    0.57160    0.20230    1.000
    C13      C        0.37330    0.40560    0.01450    1.000
    C14      C        0.45290    0.34770    0.04320    1.000
    H4       H        0.47180    0.29830    0.00950    1.000
    C15      C        0.50390    0.36310    0.12090    1.000
    C16      C        0.47390    0.43640    0.17220    1.000
    H5       H        0.50800    0.44740    0.22420    1.000
    C17      C        0.39370    0.49240    0.14560    1.000
    C18      C        0.34460    0.47640    0.06880    1.000
    H6       H        0.29010    0.51410    0.05200    1.000
    Cd5      Cd       0.76493    0.21983    0.22752    1.000
    Cd6      Cd       0.56660    0.09261    0.09125    1.000
    Cl3      Cl       0.89970    0.29920    0.30676    1.000
    O13      O        0.74010    0.06250    0.08570    1.000
    O14      O        0.85450    0.17080    0.11770    1.000
    O15      O        0.11870    0.26010    0.89820    1.000
    O16      O        0.13590    0.17860    0.78110    1.000
    O17      O        0.92110    0.90890    0.73570    1.000
    O18      O        0.78140    0.88700    0.81730    1.000
    C19      C        0.81780    0.11060    0.06840    1.000
    C20      C        0.09110    0.19720    0.84950    1.000
    C21      C        0.86210    0.92840    0.79770    1.000
    C22      C        0.87330    0.09440    0.98550    1.000
    C23      C        0.95290    0.15230    0.95680    1.000
    H7       H        0.97180    0.20170    0.99050    1.000
    C24      C        0.00390    0.13690    0.87910    1.000
    C25      C        0.97390    0.06360    0.82780    1.000
    H8       H        0.00800    0.05260    0.77580    1.000
    C26      C        0.89370    0.00760    0.85440    1.000
    C27      C        0.84460    0.02360    0.93120    1.000
    H9       H        0.79010    0.98590    0.94800    1.000
    Cd7      Cd       0.73507    0.78017    0.72752    1.000
    Cd8      Cd       0.93340    0.90739    0.59125    1.000
    Cl4      Cl       0.60030    0.70080    0.80676    1.000
    O19      O        0.75990    0.93750    0.58570    1.000
    O20      O        0.64550    0.82920    0.61770    1.000
    O21      O        0.38130    0.73990    0.39820    1.000
    O22      O        0.36410    0.82140    0.28110    1.000
    O23      O        0.57890    0.09110    0.23570    1.000
    O24      O        0.71860    0.11300    0.31730    1.000
    C28      C        0.68220    0.88940    0.56840    1.000
    C29      C        0.40890    0.80280    0.34950    1.000
    C30      C        0.63790    0.07160    0.29770    1.000
    C31      C        0.62670    0.90560    0.48550    1.000
    C32      C        0.54710    0.84770    0.45680    1.000
    H10      H        0.52820    0.79830    0.49050    1.000
    C33      C        0.49610    0.86310    0.37910    1.000
    C34      C        0.52610    0.93640    0.32780    1.000
    H11      H        0.49200    0.94740    0.27580    1.000
    C35      C        0.60630    0.99240    0.35440    1.000
    C36      C        0.65540    0.97640    0.43120    1.000
    H12      H        0.70990    0.01410    0.44800    1.000
