# CIF file generated by openbabel 3.1.0, see https://openbabel.org
data_I
_chemical_name_common 'image0'
_cell_length_a 8.494
_cell_length_b 12.987
_cell_length_c 15.187
_cell_angle_alpha 91.213
_cell_angle_beta 94.185
_cell_angle_gamma 108.525
_space_group_name_H-M_alt 'P 1'
_space_group_name_Hall 'P 1'
loop_
    _symmetry_equiv_pos_as_xyz
    x,y,z
loop_
    _atom_site_label
    _atom_site_type_symbol
    _atom_site_fract_x
    _atom_site_fract_y
    _atom_site_fract_z
    _atom_site_occupancy
    C1       C        0.93800    0.72370    0.64180    1.000
    H1       H        0.97100    0.68610    0.59780    1.000
    C2       C        0.79500    0.76780    0.73900    1.000
    H2       H        0.70910    0.76540    0.77450    1.000
    C3       C        0.94100    0.85180    0.74100    1.000
    H3       H        0.97270    0.91530    0.77670    1.000
    C4       C        0.19400    0.88560    0.65970    1.000
    C5       C        0.23500    0.99500    0.66700    1.000
    H4       H        0.15340    0.02680    0.67780    1.000
    C6       C        0.40100    0.06200    0.65900    1.000
    H5       H        0.43420    0.13600    0.67290    1.000
    C7       C        0.51100    0.01530    0.62970    1.000
    C8       C        0.46700    0.90420    0.61660    1.000
    H6       H        0.54260    0.87140    0.59880    1.000
    C9       C        0.30000    0.84060    0.63110    1.000
    H7       H        0.26540    0.76570    0.62000    1.000
    C10      C        0.73100    0.18840    0.61140    1.000
    H8       H        0.66230    0.23110    0.61580    1.000
    C11      C        0.94000    0.14300    0.58600    1.000
    H9       H        0.04150    0.14380    0.56680    1.000
    C12      C        0.80800    0.05200    0.60300    1.000
    H10      H        0.81070    0.98180    0.60720    1.000
    C13      C        0.45200    0.50910    0.82010    1.000
    H11      H        0.49200    0.58110    0.84150    1.000
    C14      C        0.40400    0.36600    0.73910    1.000
    H12      H        0.40520    0.31860    0.69260    1.000
    C15      C        0.31700    0.33600    0.81150    1.000
    H13      H        0.24800    0.26710    0.82280    1.000
    C16      C        0.28000    0.43730    0.94360    1.000
    C17      C        0.19100    0.34620    0.98300    1.000
    H14      H        0.17870    0.27780    0.95830    1.000
    C18      C        0.11800    0.35610    0.05910    1.000
    H15      H        0.05690    0.29380    0.08560    1.000
    C19      C        0.13500    0.45460    0.09630    1.000
    C20      C        0.23100    0.54990    0.05900    1.000
    H16      H        0.24350    0.61830    0.08420    1.000
    C21      C        0.30600    0.53770    0.98300    1.000
    H17      H        0.37440    0.59900    0.95830    1.000
    C22      C        0.10600    0.54300    0.24040    1.000
    H18      H        0.20690    0.59960    0.24400    1.000
    C23      C        0.86600    0.43460    0.27270    1.000
    H19      H        0.77070    0.40490    0.30200    1.000
    C24      C        0.90000    0.39190    0.19400    1.000
    H20      H        0.83610    0.32880    0.16200    1.000
    N1       N        0.79040    0.68760    0.67840    1.000
    N2       N        0.03000    0.82200    0.67840    1.000
    N3       N        0.67790    0.08400    0.61360    1.000
    N4       N        0.89230    0.22970    0.60250    1.000
    N5       N        0.48800    0.47500    0.74380    1.000
    N6       N        0.35290    0.42780    0.86350    1.000
    N7       N        0.05380    0.46640    0.17400    1.000
    N8       N        0.99350    0.52650    0.30050    1.000
    O1       O        0.85170    0.39940    0.48240    1.000
    O2       O        0.66140    0.45320    0.57700    1.000
    O3       O        0.56650    0.38710    0.41890    1.000
    O4       O        0.78170    0.57040    0.45280    1.000
    Zn1      Zn       0.59610    0.55776    0.64106    1.000
    Zn2      Zn       0.99410    0.39041    0.58485    1.000
    P1       P        0.71410    0.45260    0.48380    1.000
    C25      C        0.06200    0.27630    0.35820    1.000
    H21      H        0.02900    0.31390    0.40220    1.000
    C26      C        0.20500    0.23220    0.26100    1.000
    H22      H        0.29090    0.23460    0.22550    1.000
    C27      C        0.05900    0.14820    0.25900    1.000
    H23      H        0.02730    0.08470    0.22330    1.000
    C28      C        0.80600    0.11440    0.34030    1.000
    C29      C        0.76500    0.00500    0.33300    1.000
    H24      H        0.84660    0.97320    0.32220    1.000
    C30      C        0.59900    0.93800    0.34100    1.000
    H25      H        0.56580    0.86400    0.32710    1.000
    C31      C        0.48900    0.98470    0.37030    1.000
    C32      C        0.53300    0.09580    0.38340    1.000
    H26      H        0.45740    0.12860    0.40120    1.000
    C33      C        0.70000    0.15940    0.36890    1.000
    H27      H        0.73460    0.23430    0.38000    1.000
    C34      C        0.26900    0.81160    0.38860    1.000
    H28      H        0.33770    0.76890    0.38420    1.000
    C35      C        0.06000    0.85700    0.41400    1.000
    H29      H        0.95850    0.85620    0.43320    1.000
    C36      C        0.19200    0.94800    0.39700    1.000
    H30      H        0.18930    0.01820    0.39280    1.000
    C37      C        0.54800    0.49090    0.17990    1.000
    H31      H        0.50800    0.41890    0.15850    1.000
    C38      C        0.59600    0.63400    0.26090    1.000
    H32      H        0.59480    0.68140    0.30740    1.000
    C39      C        0.68300    0.66400    0.18850    1.000
    H33      H        0.75200    0.73290    0.17720    1.000
    C40      C        0.72000    0.56270    0.05640    1.000
    C41      C        0.80900    0.65380    0.01700    1.000
    H34      H        0.82130    0.72220    0.04170    1.000
    C42      C        0.88200    0.64390    0.94090    1.000
    H35      H        0.94310    0.70620    0.91440    1.000
    C43      C        0.86500    0.54540    0.90370    1.000
    C44      C        0.76900    0.45010    0.94100    1.000
    H36      H        0.75650    0.38170    0.91580    1.000
    C45      C        0.69400    0.46230    0.01700    1.000
    H37      H        0.62560    0.40100    0.04170    1.000
    C46      C        0.89400    0.45700    0.75960    1.000
    H38      H        0.79310    0.40040    0.75600    1.000
    C47      C        0.13400    0.56540    0.72730    1.000
    H39      H        0.22930    0.59510    0.69800    1.000
    C48      C        0.10000    0.60810    0.80600    1.000
    H40      H        0.16390    0.67120    0.83800    1.000
    N9       N        0.20960    0.31240    0.32160    1.000
    N10      N        0.97000    0.17800    0.32160    1.000
    N11      N        0.32210    0.91600    0.38640    1.000
    N12      N        0.10770    0.77030    0.39750    1.000
    N13      N        0.51200    0.52500    0.25620    1.000
    N14      N        0.64710    0.57220    0.13650    1.000
    N15      N        0.94620    0.53360    0.82600    1.000
    N16      N        0.00650    0.47350    0.69950    1.000
    O5       O        0.14830    0.60060    0.51760    1.000
    O6       O        0.33860    0.54680    0.42300    1.000
    O7       O        0.43350    0.61290    0.58110    1.000
    O8       O        0.21830    0.42960    0.54720    1.000
    Zn3      Zn       0.40390    0.44224    0.35894    1.000
    Zn4      Zn       0.00590    0.60959    0.41515    1.000
    P2       P        0.28590    0.54740    0.51620    1.000
