# CIF file generated by openbabel 3.1.0, see https://openbabel.org
data_I
_chemical_name_common 'DOQHAT_clean'
_cell_length_a 7.226
_cell_length_b 10.2745
_cell_length_c 13.2918
_cell_angle_alpha 90
_cell_angle_beta 90
_cell_angle_gamma 99.493
_space_group_name_H-M_alt 'P 1'
_space_group_name_Hall 'P 1'
loop_
    _symmetry_equiv_pos_as_xyz
    x,y,z
loop_
    _atom_site_label
    _atom_site_type_symbol
    _atom_site_fract_x
    _atom_site_fract_y
    _atom_site_fract_z
    _atom_site_occupancy
    Ce1      Ce       0.16144    0.28177    0.90556    1.000
    Ce2      Ce       0.83856    0.21823    0.40556    1.000
    Ce3      Ce       0.83856    0.71823    0.09444    1.000
    Ce4      Ce       0.16144    0.78177    0.59444    1.000
    P1       P        0.78628    0.07245    0.05061    1.000
    P2       P        0.21372    0.42755    0.55061    1.000
    P3       P        0.21372    0.92755    0.94939    1.000
    P4       P        0.78628    0.57245    0.44939    1.000
    H1       H        0.59240    0.19050    0.04650    1.000
    H2       H        0.87050    0.00130    0.25700    1.000
    H3       H        0.05900    0.08610    0.14870    1.000
    H4       H        0.40760    0.30950    0.54650    1.000
    H5       H        0.12950    0.49870    0.75700    1.000
    H6       H        0.94100    0.41390    0.64870    1.000
    H7       H        0.40760    0.80950    0.95350    1.000
    H8       H        0.12950    0.99870    0.74300    1.000
    H9       H        0.94100    0.91390    0.85130    1.000
    H10      H        0.59240    0.69050    0.45350    1.000
    H11      H        0.87050    0.50130    0.24300    1.000
    H12      H        0.05900    0.58610    0.35130    1.000
    C1       C        0.94510    0.12550    0.15590    1.000
    C2       C        0.99890    0.27450    0.16270    1.000
    C3       C        0.45400    0.55490    0.97470    1.000
    C4       C        0.05490    0.37450    0.65590    1.000
    C5       C        0.00110    0.22550    0.66270    1.000
    C6       C        0.54600    0.94510    0.47470    1.000
    C7       C        0.05490    0.87450    0.84410    1.000
    C8       C        0.00110    0.72550    0.83730    1.000
    C9       C        0.54600    0.44510    0.02530    1.000
    C10      C        0.94510    0.62550    0.34410    1.000
    C11      C        0.99890    0.77450    0.33730    1.000
    C12      C        0.45400    0.05490    0.52530    1.000
    O1       O        0.60370    0.12690    0.08180    1.000
    O2       O        0.86770    0.13190    0.95403    1.000
    O3       O        0.74380    0.92470    0.05620    1.000
    O4       O        0.84830    0.07550    0.24519    1.000
    O5       O        0.07930    0.33370    0.08803    1.000
    O6       O        0.96040    0.33070    0.24300    1.000
    O7       O        0.30870    0.51940    0.92480    1.000
    O8       O        0.53240    0.67180    0.99110    1.000
    O9       O        0.39630    0.37310    0.58180    1.000
    O10      O        0.13230    0.36810    0.45403    1.000
    O11      O        0.25620    0.57530    0.55620    1.000
    O12      O        0.15170    0.42450    0.74519    1.000
    O13      O        0.92070    0.16630    0.58803    1.000
    O14      O        0.03960    0.16930    0.74300    1.000
    O15      O        0.69130    0.98060    0.42480    1.000
    O16      O        0.46760    0.82820    0.49110    1.000
    O17      O        0.39630    0.87310    0.91820    1.000
    O18      O        0.13230    0.86810    0.04597    1.000
    O19      O        0.25620    0.07530    0.94380    1.000
    O20      O        0.15170    0.92450    0.75481    1.000
    O21      O        0.92070    0.66630    0.91197    1.000
    O22      O        0.03960    0.66930    0.75700    1.000
    O23      O        0.69130    0.48060    0.07520    1.000
    O24      O        0.46760    0.32820    0.00890    1.000
    O25      O        0.60370    0.62690    0.41820    1.000
    O26      O        0.86770    0.63190    0.54597    1.000
    O27      O        0.74380    0.42470    0.44380    1.000
    O28      O        0.84830    0.57550    0.25481    1.000
    O29      O        0.07930    0.83370    0.41197    1.000
    O30      O        0.96040    0.83070    0.25700    1.000
    O31      O        0.30870    0.01940    0.57520    1.000
    O32      O        0.53240    0.17180    0.50890    1.000
