# CIF file generated by openbabel 3.1.0, see https://openbabel.org
data_I
_chemical_name_common 'image0'
_cell_length_a 20.9323
_cell_length_b 20.9322
_cell_length_c 17.122
_cell_angle_alpha 90
_cell_angle_beta 90
_cell_angle_gamma 60
_space_group_name_H-M_alt 'P 1'
_space_group_name_Hall 'P 1'
loop_
    _symmetry_equiv_pos_as_xyz
    x,y,z
loop_
    _atom_site_label
    _atom_site_type_symbol
    _atom_site_fract_x
    _atom_site_fract_y
    _atom_site_fract_z
    _atom_site_occupancy
    O1       O        0.03989    0.02267    0.91226    1.000
    O2       O        0.11237    0.95175    0.01429    1.000
    O3       O        0.16135    0.03484    0.93599    1.000
    O4       O        0.18032    0.92328    0.86211    1.000
    O5       O        0.95554    0.10820    0.99745    1.000
    O6       O        0.93164    0.17324    0.85136    1.000
    O7       O        0.04636    0.15023    0.92867    1.000
    O8       O        0.02304    0.04030    0.10153    1.000
    O9       O        0.03940    0.15681    0.07653    1.000
    O10      O        0.92396    0.18128    0.13455    1.000
    O11      O        0.17819    0.91781    0.14531    1.000
    O12      O        0.15656    0.03475    0.08478    1.000
    Zr1      Zr       0.06865    0.06444    0.00648    1.000
    O13      O        0.98020    0.96298    0.91226    1.000
    O14      O        0.05112    0.89050    0.01429    1.000
    O15      O        0.07951    0.82245    0.86213    1.000
    O16      O        0.96803    0.84152    0.93599    1.000
    Zr2      Zr       0.07546    0.92856    0.91369    1.000
    O17      O        0.89468    0.04733    0.99745    1.000
    O18      O        0.85264    0.95651    0.92868    1.000
    O19      O        0.83049    0.07209    0.85136    1.000
    Zr3      Zr       0.92723    0.07564    0.89584    1.000
    O20      O        0.96258    0.97983    0.10153    1.000
    O21      O        0.82711    0.08443    0.13441    1.000
    O22      O        0.84606    0.96347    0.07653    1.000
    O23      O        0.96813    0.84631    0.08478    1.000
    O24      O        0.08517    0.82480    0.14531    1.000
    Zr4      Zr       0.93728    0.06387    0.09809    1.000
    Zr5      Zr       0.93843    0.93422    0.00648    1.000
    Zr6      Zr       0.07463    0.92824    0.11499    1.000
    H1       H        0.94015    0.76168    0.42435    1.000
    C1       C        0.05522    0.50784    0.73984    1.000
    C2       C        0.05740    0.44105    0.73925    1.000
    C3       C        0.02440    0.43817    0.67022    1.000
    N1       N        0.00164    0.50102    0.62931    1.000
    C4       C        0.02041    0.54358    0.67155    1.000
    C5       C        0.01023    0.37795    0.64780    1.000
    C6       C        0.99813    0.36419    0.56553    1.000
    C7       C        0.97752    0.31370    0.54242    1.000
    C8       C        0.97619    0.31482    0.46246    1.000
    C9       C        0.99622    0.36580    0.43974    1.000
    N2       N        0.01050    0.39559    0.50271    1.000
    C10      C        0.00637    0.38123    0.35752    1.000
    C11      C        0.02598    0.43804    0.33668    1.000
    C12      C        0.06224    0.43835    0.26914    1.000
    C13      C        0.06552    0.50239    0.27037    1.000
    C14      C        0.03049    0.53921    0.33815    1.000
    N3       N        0.00645    0.49985    0.37838    1.000
    C15      C        0.01717    0.61323    0.36068    1.000
    C16      C        0.99777    0.64074    0.44168    1.000
    C17      C        0.96109    0.71438    0.46277    1.000
    C18      C        0.95690    0.71591    0.54280    1.000
    C19      C        0.99128    0.64314    0.56690    1.000
    N4       N        0.01656    0.59685    0.50522    1.000
    C20      C        0.00372    0.61875    0.64933    1.000
    H2       H        0.07604    0.52821    0.78559    1.000
    H3       H        0.07977    0.39998    0.78497    1.000
    H4       H        0.96608    0.27857    0.57914    1.000
    H5       H        0.96356    0.28077    0.42535    1.000
    H6       H        0.08327    0.39743    0.22322    1.000
    H7       H        0.08966    0.52055    0.22591    1.000
    H8       H        0.93228    0.76462    0.57935    1.000
    C21      C        0.00673    0.33044    0.70943    1.000
    C22      C        0.00014    0.33580    0.29517    1.000
    C23      C        0.02237    0.66135    0.30078    1.000
    C24      C        0.00787    0.66757    0.70917    1.000
    C25      C        0.07131    0.27619    0.74571    1.000
    C26      C        0.06800    0.22805    0.80003    1.000
    C27      C        0.00028    0.23244    0.81706    1.000
    C28      C        0.93568    0.28729    0.78121    1.000
    C29      C        0.93881    0.33647    0.72845    1.000
    C30      C        0.06361    0.27976    0.25915    1.000
    C31      C        0.05792    0.23390    0.20370    1.000
    C32      C        0.98874    0.24233    0.18470    1.000
    C33      C        0.92524    0.29849    0.22104    1.000
    C34      C        0.93090    0.34523    0.27546    1.000
    C35      C        0.07094    0.68857    0.31099    1.000
    C36      C        0.07432    0.73578    0.25545    1.000
    C37      C        0.02833    0.75734    0.18940    1.000
    C38      C        0.98013    0.72945    0.17916    1.000
    C39      C        0.97755    0.68149    0.23415    1.000
    C40      C        0.05689    0.69412    0.69907    1.000
    C41      C        0.06161    0.73993    0.75510    1.000
    C42      C        0.01695    0.76062    0.82226    1.000
    C43      C        0.96761    0.73408    0.83222    1.000
    C44      C        0.96347    0.68749    0.77626    1.000
    H9       H        0.12430    0.27028    0.73080    1.000
    H10      H        0.11860    0.18566    0.82639    1.000
    H11      H        0.88282    0.29185    0.79366    1.000
    H12      H        0.88856    0.37796    0.70067    1.000
    H13      H        0.11760    0.27079    0.27494    1.000
    H14      H        0.10793    0.19039    0.17746    1.000
    H15      H        0.87129    0.30617    0.20755    1.000
    H16      H        0.88148    0.38785    0.30349    1.000
    H17      H        0.10595    0.67348    0.36217    1.000
    H18      H        0.11150    0.75688    0.26527    1.000
    H19      H        0.94394    0.74508    0.12893    1.000
    H20      H        0.93953    0.66121    0.22556    1.000
    H21      H        0.09184    0.67903    0.64782    1.000
    H22      H        0.09980    0.75976    0.74518    1.000
    H23      H        0.93238    0.74912    0.88319    1.000
    H24      H        0.92521    0.66750    0.78485    1.000
    H25      H        0.97453    0.51639    0.42905    1.000
    H26      H        0.97121    0.51595    0.57761    1.000
    H27      H        0.24118    0.06276    0.42435    1.000
    C45      C        0.49502    0.94766    0.73984    1.000
    C46      C        0.56181    0.94548    0.73924    1.000
    C47      C        0.56470    0.97848    0.67022    1.000
    N5       N        0.50184    0.00125    0.62931    1.000
    C48      C        0.45928    0.98247    0.67155    1.000
    C49      C        0.62491    0.99264    0.64780    1.000
    C50      C        0.63867    0.00475    0.56553    1.000
    C51      C        0.68917    0.02535    0.54242    1.000
    C52      C        0.68804    0.02669    0.46247    1.000
    C53      C        0.63707    0.00666    0.43974    1.000
    N6       N        0.60728    0.99238    0.50271    1.000
    C54      C        0.62164    0.99651    0.35752    1.000
    C55      C        0.56483    0.97691    0.33668    1.000
    C56      C        0.56451    0.94064    0.26914    1.000
    C57      C        0.50047    0.93737    0.27037    1.000
    C58      C        0.46365    0.97239    0.33815    1.000
    N7       N        0.50302    0.99644    0.37838    1.000
    C59      C        0.38963    0.98572    0.36068    1.000
    C60      C        0.36212    0.00512    0.44168    1.000
    C61      C        0.28849    0.04180    0.46277    1.000
    C62      C        0.28696    0.04600    0.54280    1.000
    C63      C        0.35973    0.01161    0.56690    1.000
    N8       N        0.40602    0.98633    0.50522    1.000
    C64      C        0.38411    0.99917    0.64933    1.000
    H28      H        0.47465    0.92685    0.78558    1.000
    H29      H        0.60288    0.92311    0.78496    1.000
    H30      H        0.72430    0.03679    0.57914    1.000
    H31      H        0.72210    0.03932    0.42535    1.000
    H32      H        0.60544    0.91961    0.22323    1.000
    H33      H        0.48232    0.91323    0.22591    1.000
    H34      H        0.23824    0.07062    0.57934    1.000
    C65      C        0.67243    0.99615    0.70943    1.000
    C66      C        0.66707    0.00274    0.29517    1.000
    C67      C        0.34151    0.98051    0.30078    1.000
    C68      C        0.33529    0.99502    0.70916    1.000
    C69      C        0.66640    0.06406    0.72846    1.000
    C70      C        0.71558    0.06719    0.78121    1.000
    C71      C        0.77043    0.00259    0.81706    1.000
    C72      C        0.77482    0.93487    0.80003    1.000
    C73      C        0.72667    0.93156    0.74571    1.000
    C74      C        0.72311    0.93927    0.25915    1.000
    C75      C        0.76897    0.94495    0.20370    1.000
    C76      C        0.76054    0.01413    0.18470    1.000
    C77      C        0.70438    0.07764    0.22104    1.000
    C78      C        0.65764    0.07198    0.27546    1.000
    C79      C        0.31429    0.93194    0.31099    1.000
    C80      C        0.26708    0.92856    0.25545    1.000
    C81      C        0.24553    0.97455    0.18940    1.000
    C82      C        0.27342    0.02275    0.17916    1.000
    C83      C        0.32138    0.02533    0.23414    1.000
    C84      C        0.30874    0.94600    0.69906    1.000
    C85      C        0.26293    0.94128    0.75509    1.000
    C86      C        0.24225    0.98593    0.82225    1.000
    C87      C        0.26879    0.03527    0.83222    1.000
    C88      C        0.31538    0.03941    0.77626    1.000
    H35      H        0.62491    0.11431    0.70067    1.000
    H36      H        0.71102    0.12005    0.79366    1.000
    H37      H        0.81720    0.88427    0.82639    1.000
    H38      H        0.73259    0.87858    0.73080    1.000
    H39      H        0.73208    0.88528    0.27494    1.000
    H40      H        0.81248    0.89495    0.17747    1.000
    H41      H        0.69670    0.13158    0.20755    1.000
    H42      H        0.61502    0.12140    0.30349    1.000
    H43      H        0.32938    0.89694    0.36218    1.000
    H44      H        0.24599    0.89138    0.26528    1.000
    H45      H        0.25779    0.05893    0.12893    1.000
    H46      H        0.34166    0.06335    0.22555    1.000
    H47      H        0.32382    0.91106    0.64781    1.000
    H48      H        0.24309    0.90309    0.74516    1.000
    H49      H        0.25375    0.07049    0.88320    1.000
    H50      H        0.33537    0.07767    0.78485    1.000
    H51      H        0.48648    0.02836    0.42905    1.000
    H52      H        0.48691    0.03167    0.57761    1.000
    C89      C        0.98387    0.19068    0.12957    1.000
    C90      C        0.99737    0.17762    0.86849    1.000
    C91      C        0.02116    0.81111    0.87985    1.000
    C92      C        0.02726    0.81196    0.13390    1.000
    C93      C        0.81219    0.01900    0.12957    1.000
    C94      C        0.19091    0.97562    0.13390    1.000
    C95      C        0.82525    0.00550    0.86849    1.000
    C96      C        0.19175    0.98172    0.87984    1.000
