# CIF file generated by openbabel 3.1.0, see https://openbabel.org
data_I
_chemical_name_common 'image0'
_cell_length_a 26.1377
_cell_length_b 6.7464
_cell_length_c 25.0235
_cell_angle_alpha 90
_cell_angle_beta 105.916
_cell_angle_gamma 90
_space_group_name_H-M_alt 'P 1'
_space_group_name_Hall 'P 1'
loop_
    _symmetry_equiv_pos_as_xyz
    x,y,z
loop_
    _atom_site_label
    _atom_site_type_symbol
    _atom_site_fract_x
    _atom_site_fract_y
    _atom_site_fract_z
    _atom_site_occupancy
    Zn1      Zn       0.93497    0.88555    0.96576    1.000
    O1       O        0.91944    0.05270    0.90059    1.000
    O2       O        0.91544    0.76770    0.85589    1.000
    O3       O        0.99658    0.75180    0.52194    1.000
    O4       O        0.92966    0.94610    0.52834    1.000
    C1       C        0.91441    0.06590    0.80520    1.000
    C2       C        0.90256    0.26490    0.80158    1.000
    H1       H        0.89320    0.32720    0.83070    1.000
    C3       C        0.90442    0.37330    0.75554    1.000
    H2       H        0.89570    0.50720    0.75380    1.000
    C4       C        0.91904    0.28700    0.71170    1.000
    C5       C        0.93051    0.08480    0.71530    1.000
    H3       H        0.94020    0.02220    0.68640    1.000
    C6       C        0.92776    0.97640    0.76112    1.000
    H4       H        0.93500    0.84120    0.76240    1.000
    C7       C        0.91623    0.94960    0.85690    1.000
    C8       C        0.92515    0.40830    0.66408    1.000
    C9       C        0.89514    0.57870    0.64731    1.000
    H5       H        0.86820    0.61120    0.66350    1.000
    C10      C        0.90502    0.70040    0.60676    1.000
    H6       H        0.88470    0.81410    0.59600    1.000
    C11      C        0.94488    0.65490    0.58189    1.000
    C12      C        0.97319    0.48040    0.59672    1.000
    H7       H        0.99930    0.44560    0.57960    1.000
    C13      C        0.96303    0.35860    0.63651    1.000
    H8       H        0.98180    0.24050    0.64530    1.000
    C14      C        0.95826    0.79310    0.54157    1.000
    N1       N        0.88107    0.67900    0.97240    1.000
    C15      C        0.84896    0.70950    0.00519    1.000
    H9       H        0.85250    0.82670    0.02540    1.000
    C16      C        0.81119    0.57570    0.01018    1.000
    H10      H        0.78970    0.60270    0.03340    1.000
    C17      C        0.80502    0.39980    0.98052    1.000
    C18      C        0.83928    0.36740    0.94746    1.000
    H11      H        0.83710    0.25030    0.92740    1.000
    C19      C        0.87601    0.50780    0.94460    1.000
    H12      H        0.89850    0.48320    0.92230    1.000
    C20      C        0.76581    0.24720    0.98360    1.000
    H13      H        0.76310    0.13760    0.96050    1.000
    Zn2      Zn       0.43497    0.38555    0.96576    1.000
    O5       O        0.41944    0.55270    0.90059    1.000
    O6       O        0.41544    0.26770    0.85589    1.000
    O7       O        0.49658    0.25180    0.52194    1.000
    O8       O        0.42966    0.44610    0.52834    1.000
    C21      C        0.41441    0.56590    0.80520    1.000
    C22      C        0.40256    0.76490    0.80158    1.000
    H14      H        0.39320    0.82720    0.83070    1.000
    C23      C        0.40442    0.87330    0.75554    1.000
    H15      H        0.39570    0.00720    0.75380    1.000
    C24      C        0.41904    0.78700    0.71170    1.000
    C25      C        0.43051    0.58480    0.71530    1.000
    H16      H        0.44020    0.52220    0.68640    1.000
    C26      C        0.42776    0.47640    0.76112    1.000
    H17      H        0.43500    0.34120    0.76240    1.000
    C27      C        0.41623    0.44960    0.85690    1.000
    C28      C        0.42515    0.90830    0.66408    1.000
    C29      C        0.39514    0.07870    0.64731    1.000
    H18      H        0.36820    0.11120    0.66350    1.000
    C30      C        0.40502    0.20040    0.60676    1.000
    H19      H        0.38470    0.31410    0.59600    1.000
    C31      C        0.44488    0.15490    0.58189    1.000
    C32      C        0.47319    0.98040    0.59672    1.000
    H20      H        0.49930    0.94560    0.57960    1.000
    C33      C        0.46303    0.85860    0.63651    1.000
    H21      H        0.48180    0.74050    0.64530    1.000
    C34      C        0.45826    0.29310    0.54157    1.000
    N2       N        0.38107    0.17900    0.97240    1.000
    C35      C        0.34896    0.20950    0.00519    1.000
    H22      H        0.35250    0.32670    0.02540    1.000
    C36      C        0.31119    0.07570    0.01018    1.000
    H23      H        0.28970    0.10270    0.03340    1.000
    C37      C        0.30502    0.89980    0.98052    1.000
    C38      C        0.33928    0.86740    0.94746    1.000
    H24      H        0.33710    0.75030    0.92740    1.000
    C39      C        0.37601    0.00780    0.94460    1.000
    H25      H        0.39850    0.98320    0.92230    1.000
    C40      C        0.26581    0.74720    0.98360    1.000
    H26      H        0.26310    0.63760    0.96050    1.000
    Zn3      Zn       0.06503    0.88555    0.53424    1.000
    O9       O        0.08056    0.05270    0.59941    1.000
    O10      O        0.08456    0.76770    0.64411    1.000
    O11      O        0.00342    0.75180    0.97806    1.000
    O12      O        0.07034    0.94610    0.97166    1.000
    C41      C        0.08559    0.06590    0.69480    1.000
    C42      C        0.09744    0.26490    0.69842    1.000
    H27      H        0.10680    0.32720    0.66930    1.000
    C43      C        0.09558    0.37330    0.74446    1.000
    H28      H        0.10430    0.50720    0.74620    1.000
    C44      C        0.08096    0.28700    0.78830    1.000
    C45      C        0.06949    0.08480    0.78470    1.000
    H29      H        0.05980    0.02220    0.81360    1.000
    C46      C        0.07224    0.97640    0.73888    1.000
    H30      H        0.06500    0.84120    0.73760    1.000
    C47      C        0.08377    0.94960    0.64310    1.000
    C48      C        0.07485    0.40830    0.83592    1.000
    C49      C        0.10486    0.57870    0.85269    1.000
    H31      H        0.13180    0.61120    0.83650    1.000
    C50      C        0.09498    0.70040    0.89324    1.000
    H32      H        0.11530    0.81410    0.90400    1.000
    C51      C        0.05512    0.65490    0.91811    1.000
    C52      C        0.02681    0.48040    0.90328    1.000
    H33      H        0.00070    0.44560    0.92040    1.000
    C53      C        0.03697    0.35860    0.86349    1.000
    H34      H        0.01820    0.24050    0.85470    1.000
    C54      C        0.04174    0.79310    0.95843    1.000
    N3       N        0.11893    0.67900    0.52760    1.000
    C55      C        0.15104    0.70950    0.49481    1.000
    H35      H        0.14750    0.82670    0.47460    1.000
    C56      C        0.18881    0.57570    0.48982    1.000
    H36      H        0.21030    0.60270    0.46660    1.000
    C57      C        0.19498    0.39980    0.51948    1.000
    C58      C        0.16072    0.36740    0.55254    1.000
    H37      H        0.16290    0.25030    0.57260    1.000
    C59      C        0.12399    0.50780    0.55540    1.000
    H38      H        0.10150    0.48320    0.57770    1.000
    C60      C        0.23419    0.24720    0.51640    1.000
    H39      H        0.23690    0.13760    0.53950    1.000
    Zn4      Zn       0.56503    0.38555    0.53424    1.000
    O13      O        0.58056    0.55270    0.59941    1.000
    O14      O        0.58456    0.26770    0.64411    1.000
    O15      O        0.50342    0.25180    0.97806    1.000
    O16      O        0.57034    0.44610    0.97166    1.000
    C61      C        0.58559    0.56590    0.69480    1.000
    C62      C        0.59744    0.76490    0.69842    1.000
    H40      H        0.60680    0.82720    0.66930    1.000
    C63      C        0.59558    0.87330    0.74446    1.000
    H41      H        0.60430    0.00720    0.74620    1.000
    C64      C        0.58096    0.78700    0.78830    1.000
    C65      C        0.56949    0.58480    0.78470    1.000
    H42      H        0.55980    0.52220    0.81360    1.000
    C66      C        0.57224    0.47640    0.73888    1.000
    H43      H        0.56500    0.34120    0.73760    1.000
    C67      C        0.58377    0.44960    0.64310    1.000
    C68      C        0.57485    0.90830    0.83592    1.000
    C69      C        0.60486    0.07870    0.85269    1.000
    H44      H        0.63180    0.11120    0.83650    1.000
    C70      C        0.59498    0.20040    0.89324    1.000
    H45      H        0.61530    0.31410    0.90400    1.000
    C71      C        0.55512    0.15490    0.91811    1.000
    C72      C        0.52681    0.98040    0.90328    1.000
    H46      H        0.50070    0.94560    0.92040    1.000
    C73      C        0.53697    0.85860    0.86349    1.000
    H47      H        0.51820    0.74050    0.85470    1.000
    C74      C        0.54174    0.29310    0.95843    1.000
    N4       N        0.61893    0.17900    0.52760    1.000
    C75      C        0.65104    0.20950    0.49481    1.000
    H48      H        0.64750    0.32670    0.47460    1.000
    C76      C        0.68881    0.07570    0.48982    1.000
    H49      H        0.71030    0.10270    0.46660    1.000
    C77      C        0.69498    0.89980    0.51948    1.000
    C78      C        0.66072    0.86740    0.55254    1.000
    H50      H        0.66290    0.75030    0.57260    1.000
    C79      C        0.62399    0.00780    0.55540    1.000
    H51      H        0.60150    0.98320    0.57770    1.000
    C80      C        0.73419    0.74720    0.51640    1.000
    H52      H        0.73690    0.63760    0.53950    1.000
    Zn5      Zn       0.06503    0.11445    0.03424    1.000
    O17      O        0.08056    0.94730    0.09941    1.000
    O18      O        0.08456    0.23230    0.14411    1.000
    O19      O        0.00342    0.24820    0.47806    1.000
    O20      O        0.07034    0.05390    0.47166    1.000
    C81      C        0.08559    0.93410    0.19480    1.000
    C82      C        0.09744    0.73510    0.19842    1.000
    H53      H        0.10680    0.67280    0.16930    1.000
    C83      C        0.09558    0.62670    0.24446    1.000
    H54      H        0.10430    0.49280    0.24620    1.000
    C84      C        0.08096    0.71300    0.28830    1.000
    C85      C        0.06949    0.91520    0.28470    1.000
    H55      H        0.05980    0.97780    0.31360    1.000
    C86      C        0.07224    0.02360    0.23888    1.000
    H56      H        0.06500    0.15880    0.23760    1.000
    C87      C        0.08377    0.05040    0.14310    1.000
    C88      C        0.07485    0.59170    0.33592    1.000
    C89      C        0.10486    0.42130    0.35269    1.000
    H57      H        0.13180    0.38880    0.33650    1.000
    C90      C        0.09498    0.29960    0.39324    1.000
    H58      H        0.11530    0.18590    0.40400    1.000
    C91      C        0.05512    0.34510    0.41811    1.000
    C92      C        0.02681    0.51960    0.40328    1.000
    H59      H        0.00070    0.55440    0.42040    1.000
    C93      C        0.03697    0.64140    0.36349    1.000
    H60      H        0.01820    0.75950    0.35470    1.000
    C94      C        0.04174    0.20690    0.45843    1.000
    N5       N        0.11893    0.32100    0.02760    1.000
    C95      C        0.15104    0.29050    0.99481    1.000
    H61      H        0.14750    0.17330    0.97460    1.000
    C96      C        0.18881    0.42430    0.98982    1.000
    H62      H        0.21030    0.39730    0.96660    1.000
    C97      C        0.19498    0.60020    0.01948    1.000
    C98      C        0.16072    0.63260    0.05254    1.000
    H63      H        0.16290    0.74970    0.07260    1.000
    C99      C        0.12399    0.49220    0.05540    1.000
    H64      H        0.10150    0.51680    0.07770    1.000
    C100     C        0.23419    0.75280    0.01640    1.000
    H65      H        0.23690    0.86240    0.03950    1.000
    Zn6      Zn       0.56503    0.61445    0.03424    1.000
    O21      O        0.58056    0.44730    0.09941    1.000
    O22      O        0.58456    0.73230    0.14411    1.000
    O23      O        0.50342    0.74820    0.47806    1.000
    O24      O        0.57034    0.55390    0.47166    1.000
    C101     C        0.58559    0.43410    0.19480    1.000
    C102     C        0.59744    0.23510    0.19842    1.000
    H66      H        0.60680    0.17280    0.16930    1.000
    C103     C        0.59558    0.12670    0.24446    1.000
    H67      H        0.60430    0.99280    0.24620    1.000
    C104     C        0.58096    0.21300    0.28830    1.000
    C105     C        0.56949    0.41520    0.28470    1.000
    H68      H        0.55980    0.47780    0.31360    1.000
    C106     C        0.57224    0.52360    0.23888    1.000
    H69      H        0.56500    0.65880    0.23760    1.000
    C107     C        0.58377    0.55040    0.14310    1.000
    C108     C        0.57485    0.09170    0.33592    1.000
    C109     C        0.60486    0.92130    0.35269    1.000
    H70      H        0.63180    0.88880    0.33650    1.000
    C110     C        0.59498    0.79960    0.39324    1.000
    H71      H        0.61530    0.68590    0.40400    1.000
    C111     C        0.55512    0.84510    0.41811    1.000
    C112     C        0.52681    0.01960    0.40328    1.000
    H72      H        0.50070    0.05440    0.42040    1.000
    C113     C        0.53697    0.14140    0.36349    1.000
    H73      H        0.51820    0.25950    0.35470    1.000
    C114     C        0.54174    0.70690    0.45843    1.000
    N6       N        0.61893    0.82100    0.02760    1.000
    C115     C        0.65104    0.79050    0.99481    1.000
    H74      H        0.64750    0.67330    0.97460    1.000
    C116     C        0.68881    0.92430    0.98982    1.000
    H75      H        0.71030    0.89730    0.96660    1.000
    C117     C        0.69498    0.10020    0.01948    1.000
    C118     C        0.66072    0.13260    0.05254    1.000
    H76      H        0.66290    0.24970    0.07260    1.000
    C119     C        0.62399    0.99220    0.05540    1.000
    H77      H        0.60150    0.01680    0.07770    1.000
    C120     C        0.73419    0.25280    0.01640    1.000
    H78      H        0.73690    0.36240    0.03950    1.000
    Zn7      Zn       0.93497    0.11445    0.46576    1.000
    O25      O        0.91944    0.94730    0.40059    1.000
    O26      O        0.91544    0.23230    0.35589    1.000
    O27      O        0.99658    0.24820    0.02194    1.000
    O28      O        0.92966    0.05390    0.02834    1.000
    C121     C        0.91441    0.93410    0.30520    1.000
    C122     C        0.90256    0.73510    0.30158    1.000
    H79      H        0.89320    0.67280    0.33070    1.000
    C123     C        0.90442    0.62670    0.25554    1.000
    H80      H        0.89570    0.49280    0.25380    1.000
    C124     C        0.91904    0.71300    0.21170    1.000
    C125     C        0.93051    0.91520    0.21530    1.000
    H81      H        0.94020    0.97780    0.18640    1.000
    C126     C        0.92776    0.02360    0.26112    1.000
    H82      H        0.93500    0.15880    0.26240    1.000
    C127     C        0.91623    0.05040    0.35690    1.000
    C128     C        0.92515    0.59170    0.16408    1.000
    C129     C        0.89514    0.42130    0.14731    1.000
    H83      H        0.86820    0.38880    0.16350    1.000
    C130     C        0.90502    0.29960    0.10676    1.000
    H84      H        0.88470    0.18590    0.09600    1.000
    C131     C        0.94488    0.34510    0.08189    1.000
    C132     C        0.97319    0.51960    0.09672    1.000
    H85      H        0.99930    0.55440    0.07960    1.000
    C133     C        0.96303    0.64140    0.13651    1.000
    H86      H        0.98180    0.75950    0.14530    1.000
    C134     C        0.95826    0.20690    0.04157    1.000
    N7       N        0.88107    0.32100    0.47240    1.000
    C135     C        0.84896    0.29050    0.50519    1.000
    H87      H        0.85250    0.17330    0.52540    1.000
    C136     C        0.81119    0.42430    0.51018    1.000
    H88      H        0.78970    0.39730    0.53340    1.000
    C137     C        0.80502    0.60020    0.48052    1.000
    C138     C        0.83928    0.63260    0.44746    1.000
    H89      H        0.83710    0.74970    0.42740    1.000
    C139     C        0.87601    0.49220    0.44460    1.000
    H90      H        0.89850    0.51680    0.42230    1.000
    C140     C        0.76581    0.75280    0.48360    1.000
    H91      H        0.76310    0.86240    0.46050    1.000
    Zn8      Zn       0.43497    0.61445    0.46576    1.000
    O29      O        0.41944    0.44730    0.40059    1.000
    O30      O        0.41544    0.73230    0.35589    1.000
    O31      O        0.49658    0.74820    0.02194    1.000
    O32      O        0.42966    0.55390    0.02834    1.000
    C141     C        0.41441    0.43410    0.30520    1.000
    C142     C        0.40256    0.23510    0.30158    1.000
    H92      H        0.39320    0.17280    0.33070    1.000
    C143     C        0.40442    0.12670    0.25554    1.000
    H93      H        0.39570    0.99280    0.25380    1.000
    C144     C        0.41904    0.21300    0.21170    1.000
    C145     C        0.43051    0.41520    0.21530    1.000
    H94      H        0.44020    0.47780    0.18640    1.000
    C146     C        0.42776    0.52360    0.26112    1.000
    H95      H        0.43500    0.65880    0.26240    1.000
    C147     C        0.41623    0.55040    0.35690    1.000
    C148     C        0.42515    0.09170    0.16408    1.000
    C149     C        0.39514    0.92130    0.14731    1.000
    H96      H        0.36820    0.88880    0.16350    1.000
    C150     C        0.40502    0.79960    0.10676    1.000
    H97      H        0.38470    0.68590    0.09600    1.000
    C151     C        0.44488    0.84510    0.08189    1.000
    C152     C        0.47319    0.01960    0.09672    1.000
    H98      H        0.49930    0.05440    0.07960    1.000
    C153     C        0.46303    0.14140    0.13651    1.000
    H99      H        0.48180    0.25950    0.14530    1.000
    C154     C        0.45826    0.70690    0.04157    1.000
    N8       N        0.38107    0.82100    0.47240    1.000
    C155     C        0.34896    0.79050    0.50519    1.000
    H100     H        0.35250    0.67330    0.52540    1.000
    C156     C        0.31119    0.92430    0.51018    1.000
    H101     H        0.28970    0.89730    0.53340    1.000
    C157     C        0.30502    0.10020    0.48052    1.000
    C158     C        0.33928    0.13260    0.44746    1.000
    H102     H        0.33710    0.24970    0.42740    1.000
    C159     C        0.37601    0.99220    0.44460    1.000
    H103     H        0.39850    0.01680    0.42230    1.000
    C160     C        0.26581    0.25280    0.48360    1.000
    H104     H        0.26310    0.36240    0.46050    1.000
