# CIF file generated by openbabel 3.1.0, see https://openbabel.org
data_I
_chemical_name_common 'image0'
_cell_length_a 28.519
_cell_length_b 13.8219
_cell_length_c 44.097
_cell_angle_alpha 90
_cell_angle_beta 90
_cell_angle_gamma 90
_space_group_name_H-M_alt 'P 1'
_space_group_name_Hall 'P 1'
loop_
    _symmetry_equiv_pos_as_xyz
    x,y,z
loop_
    _atom_site_label
    _atom_site_type_symbol
    _atom_site_fract_x
    _atom_site_fract_y
    _atom_site_fract_z
    _atom_site_occupancy
    C1       C        0.04340    0.01730    0.54610    1.000
    H1       H        0.03220    0.05620    0.56230    1.000
    C2       C        0.05210    0.06090    0.51870    1.000
    H2       H        0.04780    0.12860    0.51630    1.000
    C3       C        0.06730    0.00410    0.49440    1.000
    C4       C        0.07190    0.90490    0.49910    1.000
    H3       H        0.08150    0.86350    0.48310    1.000
    C5       C        0.06230    0.86770    0.52740    1.000
    H4       H        0.06470    0.79970    0.53020    1.000
    C6       C        0.08020    0.04990    0.46540    1.000
    C7       C        0.08610    0.18240    0.43640    1.000
    C8       C        0.11810    0.04340    0.42070    1.000
    C9       C        0.07320    0.28540    0.43070    1.000
    C10      C        0.04920    0.33940    0.45260    1.000
    H5       H        0.04180    0.31200    0.47180    1.000
    C11      C        0.03650    0.43410    0.44570    1.000
    H6       H        0.02050    0.47100    0.46070    1.000
    C12      C        0.06930    0.42330    0.39900    1.000
    H7       H        0.07710    0.45340    0.38030    1.000
    C13      C        0.08330    0.32950    0.40320    1.000
    H8       H        0.09950    0.29550    0.38760    1.000
    C14      C        0.14350    0.98720    0.39720    1.000
    C15      C        0.16610    0.03120    0.37360    1.000
    H9       H        0.16450    0.09950    0.37130    1.000
    C16      C        0.19090    0.97700    0.35330    1.000
    H10      H        0.20700    0.00930    0.33740    1.000
    C17      C        0.17040    0.83660    0.37710    1.000
    H11      H        0.17110    0.76800    0.37810    1.000
    C18      C        0.14540    0.88700    0.39890    1.000
    H12      H        0.12980    0.85350    0.41480    1.000
    C19      C        0.31380    0.11200    0.77320    1.000
    H13      H        0.34110    0.13000    0.78410    1.000
    C20      C        0.31910    0.07670    0.74410    1.000
    H14      H        0.34940    0.07020    0.73540    1.000
    C21      C        0.28020    0.05130    0.72792    1.000
    C22      C        0.23650    0.05850    0.74203    1.000
    H15      H        0.20890    0.04030    0.73150    1.000
    C23      C        0.23380    0.09260    0.77150    1.000
    H16      H        0.20410    0.09500    0.78130    1.000
    C24      C        0.28250    0.02070    0.69589    1.000
    C25      C        0.32320    0.98270    0.65396    1.000
    C26      C        0.24410    0.98440    0.65215    1.000
    C27      C        0.36880    0.96710    0.63839    1.000
    C28      C        0.41090    0.97870    0.65370    1.000
    H17      H        0.41120    0.00020    0.67410    1.000
    C29      C        0.45230    0.95860    0.63880    1.000
    H18      H        0.48090    0.96590    0.64960    1.000
    C30      C        0.41340    0.92080    0.59480    1.000
    H19      H        0.41440    0.90160    0.57410    1.000
    C31      C        0.37010    0.93890    0.60811    1.000
    H20      H        0.34200    0.93220    0.59680    1.000
    C32      C        0.19930    0.96770    0.63610    1.000
    C33      C        0.19690    0.93620    0.60670    1.000
    H21      H        0.22450    0.92860    0.59490    1.000
    C34      C        0.15310    0.91580    0.59480    1.000
    H22      H        0.15150    0.89200    0.57460    1.000
    C35      C        0.11570    0.96360    0.63790    1.000
    H23      H        0.08730    0.97640    0.64840    1.000
    C36      C        0.15760    0.98300    0.65210    1.000
    H24      H        0.15820    0.00630    0.67240    1.000
    N1       N        0.04990    0.92240    0.55107    1.000
    N2       N        0.06970    0.14380    0.46181    1.000
    N3       N        0.11120    0.13720    0.41542    1.000
    N4       N        0.10280    0.99520    0.44499    1.000
    N5       N        0.04580    0.47520    0.41915    1.000
    N6       N        0.19370    0.88090    0.35490    1.000
    N7       N        0.27190    0.12200    0.78662    1.000
    N8       N        0.32410    0.00790    0.68328    1.000
    N9       N        0.28410    0.97080    0.63700    1.000
    N10      N        0.24120    0.01010    0.68134    1.000
    N11      N        0.45400    0.92940    0.61012    1.000
    N12      N        0.11350    0.92740    0.60984    1.000
    I1       I        0.98705    0.96172    0.62480    1.000
    I2       I        0.06356    0.69114    0.59380    1.000
    I3       I        0.20059    0.63388    0.31867    1.000
    I4       I        0.32020    0.81438    0.34374    1.000
    I5       I        0.06402    0.68340    0.36593    1.000
    I6       I        0.00176    0.69499    0.45922    1.000
    Zn1      Zn       0.04950    0.87228    0.59502    1.000
    Zn2      Zn       0.23548    0.80157    0.32644    1.000
    Zn3      Zn       0.01788    0.60843    0.40890    1.000
    C37      C        0.45660    0.98270    0.04610    1.000
    H25      H        0.46780    0.94380    0.06230    1.000
    C38      C        0.44790    0.93910    0.01870    1.000
    H26      H        0.45220    0.87140    0.01630    1.000
    C39      C        0.43270    0.99590    0.99440    1.000
    C40      C        0.42810    0.09510    0.99910    1.000
    H27      H        0.41850    0.13650    0.98310    1.000
    C41      C        0.43770    0.13230    0.02740    1.000
    H28      H        0.43530    0.20030    0.03020    1.000
    C42      C        0.41980    0.95010    0.96540    1.000
    C43      C        0.41390    0.81760    0.93640    1.000
    C44      C        0.38190    0.95660    0.92070    1.000
    C45      C        0.42680    0.71460    0.93070    1.000
    C46      C        0.45080    0.66060    0.95260    1.000
    H29      H        0.45820    0.68800    0.97180    1.000
    C47      C        0.46350    0.56590    0.94570    1.000
    H30      H        0.47950    0.52900    0.96070    1.000
    C48      C        0.43070    0.57670    0.89900    1.000
    H31      H        0.42290    0.54660    0.88030    1.000
    C49      C        0.41670    0.67050    0.90320    1.000
    H32      H        0.40050    0.70450    0.88760    1.000
    C50      C        0.35650    0.01280    0.89720    1.000
    C51      C        0.33390    0.96880    0.87360    1.000
    H33      H        0.33550    0.90050    0.87130    1.000
    C52      C        0.30910    0.02300    0.85330    1.000
    H34      H        0.29300    0.99070    0.83740    1.000
    C53      C        0.32960    0.16340    0.87710    1.000
    H35      H        0.32890    0.23200    0.87810    1.000
    C54      C        0.35460    0.11300    0.89890    1.000
    H36      H        0.37020    0.14650    0.91480    1.000
    C55      C        0.18620    0.88800    0.27320    1.000
    H37      H        0.15890    0.87000    0.28410    1.000
    C56      C        0.18090    0.92330    0.24410    1.000
    H38      H        0.15060    0.92980    0.23540    1.000
    C57      C        0.21980    0.94870    0.22792    1.000
    C58      C        0.26350    0.94150    0.24203    1.000
    H39      H        0.29110    0.95970    0.23150    1.000
    C59      C        0.26620    0.90740    0.27150    1.000
    H40      H        0.29590    0.90500    0.28130    1.000
    C60      C        0.21750    0.97930    0.19589    1.000
    C61      C        0.17680    0.01730    0.15396    1.000
    C62      C        0.25590    0.01560    0.15215    1.000
    C63      C        0.13120    0.03290    0.13839    1.000
    C64      C        0.08910    0.02130    0.15370    1.000
    H41      H        0.08880    0.99980    0.17410    1.000
    C65      C        0.04770    0.04140    0.13880    1.000
    H42      H        0.01910    0.03410    0.14960    1.000
    C66      C        0.08660    0.07920    0.09480    1.000
    H43      H        0.08560    0.09840    0.07410    1.000
    C67      C        0.12990    0.06110    0.10811    1.000
    H44      H        0.15800    0.06780    0.09680    1.000
    C68      C        0.30070    0.03230    0.13610    1.000
    C69      C        0.30310    0.06380    0.10670    1.000
    H45      H        0.27550    0.07140    0.09490    1.000
    C70      C        0.34690    0.08420    0.09480    1.000
    H46      H        0.34850    0.10800    0.07460    1.000
    C71      C        0.38430    0.03640    0.13790    1.000
    H47      H        0.41270    0.02360    0.14840    1.000
    C72      C        0.34240    0.01700    0.15210    1.000
    H48      H        0.34180    0.99370    0.17240    1.000
    N13      N        0.45010    0.07760    0.05107    1.000
    N14      N        0.43030    0.85620    0.96181    1.000
    N15      N        0.38880    0.86280    0.91542    1.000
    N16      N        0.39720    0.00480    0.94499    1.000
    N17      N        0.45420    0.52480    0.91915    1.000
    N18      N        0.30630    0.11910    0.85490    1.000
    N19      N        0.22810    0.87800    0.28662    1.000
    N20      N        0.17590    0.99210    0.18328    1.000
    N21      N        0.21590    0.02920    0.13700    1.000
    N22      N        0.25880    0.98990    0.18134    1.000
    N23      N        0.04600    0.07060    0.11012    1.000
    N24      N        0.38650    0.07260    0.10984    1.000
    I7       I        0.51295    0.03828    0.12480    1.000
    I8       I        0.43644    0.30886    0.09380    1.000
    I9       I        0.29941    0.36612    0.81867    1.000
    I10      I        0.17980    0.18562    0.84374    1.000
    I11      I        0.43598    0.31660    0.86593    1.000
    I12      I        0.49824    0.30501    0.95922    1.000
    Zn4      Zn       0.45050    0.12772    0.09502    1.000
    Zn5      Zn       0.26452    0.19843    0.82644    1.000
    Zn6      Zn       0.48212    0.39157    0.90890    1.000
    C73      C        0.95660    0.51730    0.95390    1.000
    H49      H        0.96780    0.55620    0.93770    1.000
    C74      C        0.94790    0.56090    0.98130    1.000
    H50      H        0.95220    0.62860    0.98370    1.000
    C75      C        0.93270    0.50410    0.00560    1.000
    C76      C        0.92810    0.40490    0.00090    1.000
    H51      H        0.91850    0.36350    0.01690    1.000
    C77      C        0.93770    0.36770    0.97260    1.000
    H52      H        0.93530    0.29970    0.96980    1.000
    C78      C        0.91980    0.54990    0.03460    1.000
    C79      C        0.91390    0.68240    0.06360    1.000
    C80      C        0.88190    0.54340    0.07930    1.000
    C81      C        0.92680    0.78540    0.06930    1.000
    C82      C        0.95080    0.83940    0.04740    1.000
    H53      H        0.95820    0.81200    0.02820    1.000
    C83      C        0.96350    0.93410    0.05430    1.000
    H54      H        0.97950    0.97100    0.03930    1.000
    C84      C        0.93070    0.92330    0.10100    1.000
    H55      H        0.92290    0.95340    0.11970    1.000
    C85      C        0.91670    0.82950    0.09680    1.000
    H56      H        0.90050    0.79550    0.11240    1.000
    C86      C        0.85650    0.48720    0.10280    1.000
    C87      C        0.83390    0.53120    0.12640    1.000
    H57      H        0.83550    0.59950    0.12870    1.000
    C88      C        0.80910    0.47700    0.14670    1.000
    H58      H        0.79300    0.50930    0.16260    1.000
    C89      C        0.82960    0.33660    0.12290    1.000
    H59      H        0.82890    0.26800    0.12190    1.000
    C90      C        0.85460    0.38700    0.10110    1.000
    H60      H        0.87020    0.35350    0.08520    1.000
    C91      C        0.68620    0.61200    0.72680    1.000
    H61      H        0.65890    0.63000    0.71590    1.000
    C92      C        0.68090    0.57670    0.75590    1.000
    H62      H        0.65060    0.57020    0.76460    1.000
    C93      C        0.71980    0.55130    0.77208    1.000
    C94      C        0.76350    0.55850    0.75797    1.000
    H63      H        0.79110    0.54030    0.76850    1.000
    C95      C        0.76620    0.59260    0.72850    1.000
    H64      H        0.79590    0.59500    0.71870    1.000
    C96      C        0.71750    0.52070    0.80411    1.000
    C97      C        0.67680    0.48270    0.84604    1.000
    C98      C        0.75590    0.48440    0.84785    1.000
    C99      C        0.63120    0.46710    0.86161    1.000
    C100     C        0.58910    0.47870    0.84630    1.000
    H65      H        0.58880    0.50020    0.82590    1.000
    C101     C        0.54770    0.45860    0.86120    1.000
    H66      H        0.51910    0.46590    0.85040    1.000
    C102     C        0.58660    0.42080    0.90520    1.000
    H67      H        0.58560    0.40160    0.92590    1.000
    C103     C        0.62990    0.43890    0.89189    1.000
    H68      H        0.65800    0.43220    0.90320    1.000
    C104     C        0.80070    0.46770    0.86390    1.000
    C105     C        0.80310    0.43620    0.89330    1.000
    H69      H        0.77550    0.42860    0.90510    1.000
    C106     C        0.84690    0.41580    0.90520    1.000
    H70      H        0.84850    0.39200    0.92540    1.000
    C107     C        0.88430    0.46360    0.86210    1.000
    H71      H        0.91270    0.47640    0.85160    1.000
    C108     C        0.84240    0.48300    0.84790    1.000
    H72      H        0.84180    0.50630    0.82760    1.000
    N25      N        0.95010    0.42240    0.94893    1.000
    N26      N        0.93030    0.64380    0.03819    1.000
    N27      N        0.88880    0.63720    0.08458    1.000
    N28      N        0.89720    0.49520    0.05501    1.000
    N29      N        0.95420    0.97520    0.08085    1.000
    N30      N        0.80630    0.38090    0.14510    1.000
    N31      N        0.72810    0.62200    0.71338    1.000
    N32      N        0.67590    0.50790    0.81672    1.000
    N33      N        0.71590    0.47080    0.86300    1.000
    N34      N        0.75880    0.51010    0.81866    1.000
    N35      N        0.54600    0.42940    0.88988    1.000
    N36      N        0.88650    0.42740    0.89016    1.000
    I13      I        0.01295    0.46172    0.87520    1.000
    I14      I        0.93644    0.19114    0.90620    1.000
    I15      I        0.79941    0.13388    0.18133    1.000
    I16      I        0.67980    0.31438    0.15626    1.000
    I17      I        0.93598    0.18340    0.13407    1.000
    I18      I        0.99824    0.19499    0.04078    1.000
    Zn7      Zn       0.95050    0.37228    0.90498    1.000
    Zn8      Zn       0.76452    0.30157    0.17356    1.000
    Zn9      Zn       0.98212    0.10843    0.09110    1.000
    C109     C        0.54340    0.48270    0.45390    1.000
    H73      H        0.53220    0.44380    0.43770    1.000
    C110     C        0.55210    0.43910    0.48130    1.000
    H74      H        0.54780    0.37140    0.48370    1.000
    C111     C        0.56730    0.49590    0.50560    1.000
    C112     C        0.57190    0.59510    0.50090    1.000
    H75      H        0.58150    0.63650    0.51690    1.000
    C113     C        0.56230    0.63230    0.47260    1.000
    H76      H        0.56470    0.70030    0.46980    1.000
    C114     C        0.58020    0.45010    0.53460    1.000
    C115     C        0.58610    0.31760    0.56360    1.000
    C116     C        0.61810    0.45660    0.57930    1.000
    C117     C        0.57320    0.21460    0.56930    1.000
    C118     C        0.54920    0.16060    0.54740    1.000
    H77      H        0.54180    0.18800    0.52820    1.000
    C119     C        0.53650    0.06590    0.55430    1.000
    H78      H        0.52050    0.02900    0.53930    1.000
    C120     C        0.56930    0.07670    0.60100    1.000
    H79      H        0.57710    0.04660    0.61970    1.000
    C121     C        0.58330    0.17050    0.59680    1.000
    H80      H        0.59950    0.20450    0.61240    1.000
    C122     C        0.64350    0.51280    0.60280    1.000
    C123     C        0.66610    0.46880    0.62640    1.000
    H81      H        0.66450    0.40050    0.62870    1.000
    C124     C        0.69090    0.52300    0.64670    1.000
    H82      H        0.70700    0.49070    0.66260    1.000
    C125     C        0.67040    0.66340    0.62290    1.000
    H83      H        0.67110    0.73200    0.62190    1.000
    C126     C        0.64540    0.61300    0.60110    1.000
    H84      H        0.62980    0.64650    0.58520    1.000
    C127     C        0.81380    0.38800    0.22680    1.000
    H85      H        0.84110    0.37000    0.21590    1.000
    C128     C        0.81910    0.42330    0.25590    1.000
    H86      H        0.84940    0.42980    0.26460    1.000
    C129     C        0.78020    0.44870    0.27208    1.000
    C130     C        0.73650    0.44150    0.25797    1.000
    H87      H        0.70890    0.45970    0.26850    1.000
    C131     C        0.73380    0.40740    0.22850    1.000
    H88      H        0.70410    0.40500    0.21870    1.000
    C132     C        0.78250    0.47930    0.30411    1.000
    C133     C        0.82320    0.51730    0.34604    1.000
    C134     C        0.74410    0.51560    0.34785    1.000
    C135     C        0.86880    0.53290    0.36161    1.000
    C136     C        0.91090    0.52130    0.34630    1.000
    H89      H        0.91120    0.49980    0.32590    1.000
    C137     C        0.95230    0.54140    0.36120    1.000
    H90      H        0.98090    0.53410    0.35040    1.000
    C138     C        0.91340    0.57920    0.40520    1.000
    H91      H        0.91440    0.59840    0.42590    1.000
    C139     C        0.87010    0.56110    0.39189    1.000
    H92      H        0.84200    0.56780    0.40320    1.000
    C140     C        0.69930    0.53230    0.36390    1.000
    C141     C        0.69690    0.56380    0.39330    1.000
    H93      H        0.72450    0.57140    0.40510    1.000
    C142     C        0.65310    0.58420    0.40520    1.000
    H94      H        0.65150    0.60800    0.42540    1.000
    C143     C        0.61570    0.53640    0.36210    1.000
    H95      H        0.58730    0.52360    0.35160    1.000
    C144     C        0.65760    0.51700    0.34790    1.000
    H96      H        0.65820    0.49370    0.32760    1.000
    N37      N        0.54990    0.57760    0.44893    1.000
    N38      N        0.56970    0.35620    0.53819    1.000
    N39      N        0.61120    0.36280    0.58458    1.000
    N40      N        0.60280    0.50480    0.55501    1.000
    N41      N        0.54580    0.02480    0.58085    1.000
    N42      N        0.69370    0.61910    0.64510    1.000
    N43      N        0.77190    0.37800    0.21338    1.000
    N44      N        0.82410    0.49210    0.31672    1.000
    N45      N        0.78410    0.52920    0.36300    1.000
    N46      N        0.74120    0.48990    0.31866    1.000
    N47      N        0.95400    0.57060    0.38988    1.000
    N48      N        0.61350    0.57260    0.39016    1.000
    I19      I        0.48705    0.53828    0.37520    1.000
    I20      I        0.56356    0.80886    0.40620    1.000
    I21      I        0.70059    0.86612    0.68133    1.000
    I22      I        0.82020    0.68562    0.65626    1.000
    I23      I        0.56402    0.81660    0.63407    1.000
    I24      I        0.50176    0.80501    0.54078    1.000
    Zn10     Zn       0.54950    0.62772    0.40498    1.000
    Zn11     Zn       0.73548    0.69843    0.67356    1.000
    Zn12     Zn       0.51788    0.89157    0.59110    1.000
    C145     C        0.95660    0.98270    0.45390    1.000
    H97      H        0.96780    0.94380    0.43770    1.000
    C146     C        0.94790    0.93910    0.48130    1.000
    H98      H        0.95220    0.87140    0.48370    1.000
    C147     C        0.93270    0.99590    0.50560    1.000
    C148     C        0.92810    0.09510    0.50090    1.000
    H99      H        0.91850    0.13650    0.51690    1.000
    C149     C        0.93770    0.13230    0.47260    1.000
    H100     H        0.93530    0.20030    0.46980    1.000
    C150     C        0.91980    0.95010    0.53460    1.000
    C151     C        0.91390    0.81760    0.56360    1.000
    C152     C        0.88190    0.95660    0.57930    1.000
    C153     C        0.92680    0.71460    0.56930    1.000
    C154     C        0.95080    0.66060    0.54740    1.000
    H101     H        0.95820    0.68800    0.52820    1.000
    C155     C        0.96350    0.56590    0.55430    1.000
    H102     H        0.97950    0.52900    0.53930    1.000
    C156     C        0.93070    0.57670    0.60100    1.000
    H103     H        0.92290    0.54660    0.61970    1.000
    C157     C        0.91670    0.67050    0.59680    1.000
    H104     H        0.90050    0.70450    0.61240    1.000
    C158     C        0.85650    0.01280    0.60280    1.000
    C159     C        0.83390    0.96880    0.62640    1.000
    H105     H        0.83550    0.90050    0.62870    1.000
    C160     C        0.80910    0.02300    0.64670    1.000
    H106     H        0.79300    0.99070    0.66260    1.000
    C161     C        0.82960    0.16340    0.62290    1.000
    H107     H        0.82890    0.23200    0.62190    1.000
    C162     C        0.85460    0.11300    0.60110    1.000
    H108     H        0.87020    0.14650    0.58520    1.000
    C163     C        0.68620    0.88800    0.22680    1.000
    H109     H        0.65890    0.87000    0.21590    1.000
    C164     C        0.68090    0.92330    0.25590    1.000
    H110     H        0.65060    0.92980    0.26460    1.000
    C165     C        0.71980    0.94870    0.27208    1.000
    C166     C        0.76350    0.94150    0.25797    1.000
    H111     H        0.79110    0.95970    0.26850    1.000
    C167     C        0.76620    0.90740    0.22850    1.000
    H112     H        0.79590    0.90500    0.21870    1.000
    C168     C        0.71750    0.97930    0.30411    1.000
    C169     C        0.67680    0.01730    0.34604    1.000
    C170     C        0.75590    0.01560    0.34785    1.000
    C171     C        0.63120    0.03290    0.36161    1.000
    C172     C        0.58910    0.02130    0.34630    1.000
    H113     H        0.58880    0.99980    0.32590    1.000
    C173     C        0.54770    0.04140    0.36120    1.000
    H114     H        0.51910    0.03410    0.35040    1.000
    C174     C        0.58660    0.07920    0.40520    1.000
    H115     H        0.58560    0.09840    0.42590    1.000
    C175     C        0.62990    0.06110    0.39189    1.000
    H116     H        0.65800    0.06780    0.40320    1.000
    C176     C        0.80070    0.03230    0.36390    1.000
    C177     C        0.80310    0.06380    0.39330    1.000
    H117     H        0.77550    0.07140    0.40510    1.000
    C178     C        0.84690    0.08420    0.40520    1.000
    H118     H        0.84850    0.10800    0.42540    1.000
    C179     C        0.88430    0.03640    0.36210    1.000
    H119     H        0.91270    0.02360    0.35160    1.000
    C180     C        0.84240    0.01700    0.34790    1.000
    H120     H        0.84180    0.99370    0.32760    1.000
    N49      N        0.95010    0.07760    0.44893    1.000
    N50      N        0.93030    0.85620    0.53819    1.000
    N51      N        0.88880    0.86280    0.58458    1.000
    N52      N        0.89720    0.00480    0.55501    1.000
    N53      N        0.95420    0.52480    0.58085    1.000
    N54      N        0.80630    0.11910    0.64510    1.000
    N55      N        0.72810    0.87800    0.21338    1.000
    N56      N        0.67590    0.99210    0.31672    1.000
    N57      N        0.71590    0.02920    0.36300    1.000
    N58      N        0.75880    0.98990    0.31866    1.000
    N59      N        0.54600    0.07060    0.38988    1.000
    N60      N        0.88650    0.07260    0.39016    1.000
    I25      I        0.01295    0.03828    0.37520    1.000
    I26      I        0.93644    0.30886    0.40620    1.000
    I27      I        0.79941    0.36612    0.68133    1.000
    I28      I        0.67980    0.18562    0.65626    1.000
    I29      I        0.93598    0.31660    0.63407    1.000
    I30      I        0.99824    0.30501    0.54078    1.000
    Zn13     Zn       0.95050    0.12772    0.40498    1.000
    Zn14     Zn       0.76452    0.19843    0.67356    1.000
    Zn15     Zn       0.98212    0.39157    0.59110    1.000
    C181     C        0.54340    0.01730    0.95390    1.000
    H121     H        0.53220    0.05620    0.93770    1.000
    C182     C        0.55210    0.06090    0.98130    1.000
    H122     H        0.54780    0.12860    0.98370    1.000
    C183     C        0.56730    0.00410    0.00560    1.000
    C184     C        0.57190    0.90490    0.00090    1.000
    H123     H        0.58150    0.86350    0.01690    1.000
    C185     C        0.56230    0.86770    0.97260    1.000
    H124     H        0.56470    0.79970    0.96980    1.000
    C186     C        0.58020    0.04990    0.03460    1.000
    C187     C        0.58610    0.18240    0.06360    1.000
    C188     C        0.61810    0.04340    0.07930    1.000
    C189     C        0.57320    0.28540    0.06930    1.000
    C190     C        0.54920    0.33940    0.04740    1.000
    H125     H        0.54180    0.31200    0.02820    1.000
    C191     C        0.53650    0.43410    0.05430    1.000
    H126     H        0.52050    0.47100    0.03930    1.000
    C192     C        0.56930    0.42330    0.10100    1.000
    H127     H        0.57710    0.45340    0.11970    1.000
    C193     C        0.58330    0.32950    0.09680    1.000
    H128     H        0.59950    0.29550    0.11240    1.000
    C194     C        0.64350    0.98720    0.10280    1.000
    C195     C        0.66610    0.03120    0.12640    1.000
    H129     H        0.66450    0.09950    0.12870    1.000
    C196     C        0.69090    0.97700    0.14670    1.000
    H130     H        0.70700    0.00930    0.16260    1.000
    C197     C        0.67040    0.83660    0.12290    1.000
    H131     H        0.67110    0.76800    0.12190    1.000
    C198     C        0.64540    0.88700    0.10110    1.000
    H132     H        0.62980    0.85350    0.08520    1.000
    C199     C        0.81380    0.11200    0.72680    1.000
    H133     H        0.84110    0.13000    0.71590    1.000
    C200     C        0.81910    0.07670    0.75590    1.000
    H134     H        0.84940    0.07020    0.76460    1.000
    C201     C        0.78020    0.05130    0.77208    1.000
    C202     C        0.73650    0.05850    0.75797    1.000
    H135     H        0.70890    0.04030    0.76850    1.000
    C203     C        0.73380    0.09260    0.72850    1.000
    H136     H        0.70410    0.09500    0.71870    1.000
    C204     C        0.78250    0.02070    0.80411    1.000
    C205     C        0.82320    0.98270    0.84604    1.000
    C206     C        0.74410    0.98440    0.84785    1.000
    C207     C        0.86880    0.96710    0.86161    1.000
    C208     C        0.91090    0.97870    0.84630    1.000
    H137     H        0.91120    0.00020    0.82590    1.000
    C209     C        0.95230    0.95860    0.86120    1.000
    H138     H        0.98090    0.96590    0.85040    1.000
    C210     C        0.91340    0.92080    0.90520    1.000
    H139     H        0.91440    0.90160    0.92590    1.000
    C211     C        0.87010    0.93890    0.89189    1.000
    H140     H        0.84200    0.93220    0.90320    1.000
    C212     C        0.69930    0.96770    0.86390    1.000
    C213     C        0.69690    0.93620    0.89330    1.000
    H141     H        0.72450    0.92860    0.90510    1.000
    C214     C        0.65310    0.91580    0.90520    1.000
    H142     H        0.65150    0.89200    0.92540    1.000
    C215     C        0.61570    0.96360    0.86210    1.000
    H143     H        0.58730    0.97640    0.85160    1.000
    C216     C        0.65760    0.98300    0.84790    1.000
    H144     H        0.65820    0.00630    0.82760    1.000
    N61      N        0.54990    0.92240    0.94893    1.000
    N62      N        0.56970    0.14380    0.03819    1.000
    N63      N        0.61120    0.13720    0.08458    1.000
    N64      N        0.60280    0.99520    0.05501    1.000
    N65      N        0.54580    0.47520    0.08085    1.000
    N66      N        0.69370    0.88090    0.14510    1.000
    N67      N        0.77190    0.12200    0.71338    1.000
    N68      N        0.82410    0.00790    0.81672    1.000
    N69      N        0.78410    0.97080    0.86300    1.000
    N70      N        0.74120    0.01010    0.81866    1.000
    N71      N        0.95400    0.92940    0.88988    1.000
    N72      N        0.61350    0.92740    0.89016    1.000
    I31      I        0.48705    0.96172    0.87520    1.000
    I32      I        0.56356    0.69114    0.90620    1.000
    I33      I        0.70059    0.63388    0.18133    1.000
    I34      I        0.82020    0.81438    0.15626    1.000
    I35      I        0.56402    0.68340    0.13407    1.000
    I36      I        0.50176    0.69499    0.04078    1.000
    Zn16     Zn       0.54950    0.87228    0.90498    1.000
    Zn17     Zn       0.73548    0.80157    0.17356    1.000
    Zn18     Zn       0.51788    0.60843    0.09110    1.000
    C217     C        0.04340    0.48270    0.04610    1.000
    H145     H        0.03220    0.44380    0.06230    1.000
    C218     C        0.05210    0.43910    0.01870    1.000
    H146     H        0.04780    0.37140    0.01630    1.000
    C219     C        0.06730    0.49590    0.99440    1.000
    C220     C        0.07190    0.59510    0.99910    1.000
    H147     H        0.08150    0.63650    0.98310    1.000
    C221     C        0.06230    0.63230    0.02740    1.000
    H148     H        0.06470    0.70030    0.03020    1.000
    C222     C        0.08020    0.45010    0.96540    1.000
    C223     C        0.08610    0.31760    0.93640    1.000
    C224     C        0.11810    0.45660    0.92070    1.000
    C225     C        0.07320    0.21460    0.93070    1.000
    C226     C        0.04920    0.16060    0.95260    1.000
    H149     H        0.04180    0.18800    0.97180    1.000
    C227     C        0.03650    0.06590    0.94570    1.000
    H150     H        0.02050    0.02900    0.96070    1.000
    C228     C        0.06930    0.07670    0.89900    1.000
    H151     H        0.07710    0.04660    0.88030    1.000
    C229     C        0.08330    0.17050    0.90320    1.000
    H152     H        0.09950    0.20450    0.88760    1.000
    C230     C        0.14350    0.51280    0.89720    1.000
    C231     C        0.16610    0.46880    0.87360    1.000
    H153     H        0.16450    0.40050    0.87130    1.000
    C232     C        0.19090    0.52300    0.85330    1.000
    H154     H        0.20700    0.49070    0.83740    1.000
    C233     C        0.17040    0.66340    0.87710    1.000
    H155     H        0.17110    0.73200    0.87810    1.000
    C234     C        0.14540    0.61300    0.89890    1.000
    H156     H        0.12980    0.64650    0.91480    1.000
    C235     C        0.31380    0.38800    0.27320    1.000
    H157     H        0.34110    0.37000    0.28410    1.000
    C236     C        0.31910    0.42330    0.24410    1.000
    H158     H        0.34940    0.42980    0.23540    1.000
    C237     C        0.28020    0.44870    0.22792    1.000
    C238     C        0.23650    0.44150    0.24203    1.000
    H159     H        0.20890    0.45970    0.23150    1.000
    C239     C        0.23380    0.40740    0.27150    1.000
    H160     H        0.20410    0.40500    0.28130    1.000
    C240     C        0.28250    0.47930    0.19589    1.000
    C241     C        0.32320    0.51730    0.15396    1.000
    C242     C        0.24410    0.51560    0.15215    1.000
    C243     C        0.36880    0.53290    0.13839    1.000
    C244     C        0.41090    0.52130    0.15370    1.000
    H161     H        0.41120    0.49980    0.17410    1.000
    C245     C        0.45230    0.54140    0.13880    1.000
    H162     H        0.48090    0.53410    0.14960    1.000
    C246     C        0.41340    0.57920    0.09480    1.000
    H163     H        0.41440    0.59840    0.07410    1.000
    C247     C        0.37010    0.56110    0.10811    1.000
    H164     H        0.34200    0.56780    0.09680    1.000
    C248     C        0.19930    0.53230    0.13610    1.000
    C249     C        0.19690    0.56380    0.10670    1.000
    H165     H        0.22450    0.57140    0.09490    1.000
    C250     C        0.15310    0.58420    0.09480    1.000
    H166     H        0.15150    0.60800    0.07460    1.000
    C251     C        0.11570    0.53640    0.13790    1.000
    H167     H        0.08730    0.52360    0.14840    1.000
    C252     C        0.15760    0.51700    0.15210    1.000
    H168     H        0.15820    0.49370    0.17240    1.000
    N73      N        0.04990    0.57760    0.05107    1.000
    N74      N        0.06970    0.35620    0.96181    1.000
    N75      N        0.11120    0.36280    0.91542    1.000
    N76      N        0.10280    0.50480    0.94499    1.000
    N77      N        0.04580    0.02480    0.91915    1.000
    N78      N        0.19370    0.61910    0.85490    1.000
    N79      N        0.27190    0.37800    0.28662    1.000
    N80      N        0.32410    0.49210    0.18328    1.000
    N81      N        0.28410    0.52920    0.13700    1.000
    N82      N        0.24120    0.48990    0.18134    1.000
    N83      N        0.45400    0.57060    0.11012    1.000
    N84      N        0.11350    0.57260    0.10984    1.000
    I37      I        0.98705    0.53828    0.12480    1.000
    I38      I        0.06356    0.80886    0.09380    1.000
    I39      I        0.20059    0.86612    0.81867    1.000
    I40      I        0.32020    0.68562    0.84374    1.000
    I41      I        0.06402    0.81660    0.86593    1.000
    I42      I        0.00176    0.80501    0.95922    1.000
    Zn19     Zn       0.04950    0.62772    0.09502    1.000
    Zn20     Zn       0.23548    0.69843    0.82644    1.000
    Zn21     Zn       0.01788    0.89157    0.90890    1.000
    C253     C        0.45660    0.51730    0.54610    1.000
    H169     H        0.46780    0.55620    0.56230    1.000
    C254     C        0.44790    0.56090    0.51870    1.000
    H170     H        0.45220    0.62860    0.51630    1.000
    C255     C        0.43270    0.50410    0.49440    1.000
    C256     C        0.42810    0.40490    0.49910    1.000
    H171     H        0.41850    0.36350    0.48310    1.000
    C257     C        0.43770    0.36770    0.52740    1.000
    H172     H        0.43530    0.29970    0.53020    1.000
    C258     C        0.41980    0.54990    0.46540    1.000
    C259     C        0.41390    0.68240    0.43640    1.000
    C260     C        0.38190    0.54340    0.42070    1.000
    C261     C        0.42680    0.78540    0.43070    1.000
    C262     C        0.45080    0.83940    0.45260    1.000
    H173     H        0.45820    0.81200    0.47180    1.000
    C263     C        0.46350    0.93410    0.44570    1.000
    H174     H        0.47950    0.97100    0.46070    1.000
    C264     C        0.43070    0.92330    0.39900    1.000
    H175     H        0.42290    0.95340    0.38030    1.000
    C265     C        0.41670    0.82950    0.40320    1.000
    H176     H        0.40050    0.79550    0.38760    1.000
    C266     C        0.35650    0.48720    0.39720    1.000
    C267     C        0.33390    0.53120    0.37360    1.000
    H177     H        0.33550    0.59950    0.37130    1.000
    C268     C        0.30910    0.47700    0.35330    1.000
    H178     H        0.29300    0.50930    0.33740    1.000
    C269     C        0.32960    0.33660    0.37710    1.000
    H179     H        0.32890    0.26800    0.37810    1.000
    C270     C        0.35460    0.38700    0.39890    1.000
    H180     H        0.37020    0.35350    0.41480    1.000
    C271     C        0.18620    0.61200    0.77320    1.000
    H181     H        0.15890    0.63000    0.78410    1.000
    C272     C        0.18090    0.57670    0.74410    1.000
    H182     H        0.15060    0.57020    0.73540    1.000
    C273     C        0.21980    0.55130    0.72792    1.000
    C274     C        0.26350    0.55850    0.74203    1.000
    H183     H        0.29110    0.54030    0.73150    1.000
    C275     C        0.26620    0.59260    0.77150    1.000
    H184     H        0.29590    0.59500    0.78130    1.000
    C276     C        0.21750    0.52070    0.69589    1.000
    C277     C        0.17680    0.48270    0.65396    1.000
    C278     C        0.25590    0.48440    0.65215    1.000
    C279     C        0.13120    0.46710    0.63839    1.000
    C280     C        0.08910    0.47870    0.65370    1.000
    H185     H        0.08880    0.50020    0.67410    1.000
    C281     C        0.04770    0.45860    0.63880    1.000
    H186     H        0.01910    0.46590    0.64960    1.000
    C282     C        0.08660    0.42080    0.59480    1.000
    H187     H        0.08560    0.40160    0.57410    1.000
    C283     C        0.12990    0.43890    0.60811    1.000
    H188     H        0.15800    0.43220    0.59680    1.000
    C284     C        0.30070    0.46770    0.63610    1.000
    C285     C        0.30310    0.43620    0.60670    1.000
    H189     H        0.27550    0.42860    0.59490    1.000
    C286     C        0.34690    0.41580    0.59480    1.000
    H190     H        0.34850    0.39200    0.57460    1.000
    C287     C        0.38430    0.46360    0.63790    1.000
    H191     H        0.41270    0.47640    0.64840    1.000
    C288     C        0.34240    0.48300    0.65210    1.000
    H192     H        0.34180    0.50630    0.67240    1.000
    N85      N        0.45010    0.42240    0.55107    1.000
    N86      N        0.43030    0.64380    0.46181    1.000
    N87      N        0.38880    0.63720    0.41542    1.000
    N88      N        0.39720    0.49520    0.44499    1.000
    N89      N        0.45420    0.97520    0.41915    1.000
    N90      N        0.30630    0.38090    0.35490    1.000
    N91      N        0.22810    0.62200    0.78662    1.000
    N92      N        0.17590    0.50790    0.68328    1.000
    N93      N        0.21590    0.47080    0.63700    1.000
    N94      N        0.25880    0.51010    0.68134    1.000
    N95      N        0.04600    0.42940    0.61012    1.000
    N96      N        0.38650    0.42740    0.60984    1.000
    I43      I        0.51295    0.46172    0.62480    1.000
    I44      I        0.43644    0.19114    0.59380    1.000
    I45      I        0.29941    0.13388    0.31867    1.000
    I46      I        0.17980    0.31438    0.34374    1.000
    I47      I        0.43598    0.18340    0.36593    1.000
    I48      I        0.49824    0.19499    0.45922    1.000
    Zn22     Zn       0.45050    0.37228    0.59502    1.000
    Zn23     Zn       0.26452    0.30157    0.32644    1.000
    Zn24     Zn       0.48212    0.10843    0.40890    1.000
