# CIF file generated by openbabel 3.1.0, see https://openbabel.org
data_I
_chemical_name_common 'NOBVOR_clean'
_cell_length_a 11.4527
_cell_length_b 11.6239
_cell_length_c 11.7754
_cell_angle_alpha 64.825
_cell_angle_beta 81.406
_cell_angle_gamma 72.316
_space_group_name_H-M_alt 'P 1'
_space_group_name_Hall 'P 1'
loop_
    _symmetry_equiv_pos_as_xyz
    x,y,z
loop_
    _atom_site_label
    _atom_site_type_symbol
    _atom_site_fract_x
    _atom_site_fract_y
    _atom_site_fract_z
    _atom_site_occupancy
    Co1      Co       0.00000    0.00000    0.00000    1.000
    Co2      Co       0.00000    0.00000    0.50000    1.000
    Co3      Co       0.00000    0.50000    0.50000    1.000
    H1       H        0.56160    0.56490    0.65410    1.000
    H2       H        0.22120    0.00080    0.30880    1.000
    H3       H        0.15890    0.18060    0.98670    1.000
    H4       H        0.36160    0.59810    0.62550    1.000
    H5       H        0.83160    0.27530    0.37100    1.000
    H6       H        0.64910    0.81270    0.01800    1.000
    H7       H        0.73740    0.18740    0.96120    1.000
    H8       H        0.41760    0.87940    0.29650    1.000
    H9       H        0.46140    0.80860    0.03020    1.000
    H10      H        0.23310    0.52710    0.34020    1.000
    H11      H        0.35090    0.18730    0.98200    1.000
    H12      H        0.58240    0.12060    0.70350    1.000
    H13      H        0.77880    0.99920    0.69120    1.000
    H14      H        0.79580    0.62660    0.29530    1.000
    H15      H        0.76690    0.47290    0.65980    1.000
    H16      H        0.53860    0.19140    0.96980    1.000
    H17      H        0.43840    0.43510    0.34590    1.000
    H18      H        0.63840    0.40190    0.37450    1.000
    H19      H        0.20420    0.37340    0.70470    1.000
    H20      H        0.84110    0.81940    0.01330    1.000
    H21      H        0.26260    0.81260    0.03880    1.000
    H22      H        0.16840    0.72470    0.62900    1.000
    H23      H        0.40940    0.27770    0.71920    1.000
    H24      H        0.59060    0.72230    0.28080    1.000
    C1       C        0.26910    0.47410    0.41790    1.000
    C2       C        0.45110    0.34290    0.53240    1.000
    C3       C        0.37510    0.32750    0.64030    1.000
    C4       C        0.03860    0.96740    0.76770    1.000
    C5       C        0.40140    0.88660    0.02070    1.000
    C6       C        0.71850    0.10990    0.97540    1.000
    C7       C        0.56420    0.00110    0.99760    1.000
    C8       C        0.24990    0.91920    0.37420    1.000
    C9       C        0.96140    0.03260    0.23230    1.000
    C10      C        0.63100    0.15280    0.63290    1.000
    C11      C        0.39300    0.41970    0.42080    1.000
    C12      C        0.01920    0.11070    0.73020    1.000
    C13      C        0.54890    0.65710    0.46760    1.000
    C14      C        0.95110    0.75210    0.51420    1.000
    C15      C        0.66400    0.89070    0.00830    1.000
    C16      C        0.97910    0.77980    0.37970    1.000
    C17      C        0.75010    0.08080    0.62580    1.000
    C18      C        0.78030    0.24230    0.43870    1.000
    C19      C        0.59860    0.11340    0.97930    1.000
    C20      C        0.25160    0.38450    0.63130    1.000
    C21      C        0.02090    0.22020    0.62030    1.000
    C22      C        0.98080    0.88930    0.26980    1.000
    C23      C        0.28150    0.89010    0.02460    1.000
    C24      C        0.43580    0.99890    0.00240    1.000
    C25      C        0.73090    0.52590    0.58210    1.000
    C26      C        0.60700    0.58030    0.57920    1.000
    C27      C        0.36900    0.84720    0.36710    1.000
    C28      C        0.77880    0.89540    0.00500    1.000
    C29      C        0.04890    0.24790    0.48580    1.000
    C30      C        0.58370    0.27130    0.53690    1.000
    C31      C        0.62490    0.67250    0.35970    1.000
    C32      C        0.21970    0.75770    0.56130    1.000
    C33      C        0.74840    0.61550    0.36870    1.000
    C34      C        0.66390    0.31880    0.43900    1.000
    C35      C        0.22120    0.10460    0.99500    1.000
    C36      C        0.41630    0.72870    0.46310    1.000
    C37      C        0.33610    0.68120    0.56100    1.000
    C38      C        0.33600    0.10930    0.99170    1.000
    N1       N        0.99560    0.32490    0.65230    1.000
    N2       N        0.81090    0.00290    0.99050    1.000
    N3       N        0.18910    0.99710    0.00950    1.000
    N4       N        0.02410    0.71580    0.22510    1.000
    N5       N        0.19650    0.45530    0.52120    1.000
    N6       N        0.00440    0.67510    0.34770    1.000
    N7       N        0.82670    0.12350    0.52820    1.000
    N8       N        0.99000    0.15390    0.82440    1.000
    N9       N        0.17330    0.87650    0.47180    1.000
    N10      N        0.01000    0.84610    0.17560    1.000
    N11      N        0.97590    0.28420    0.77490    1.000
    N12      N        0.80350    0.54470    0.47880    1.000
    O1       O        0.04620    0.92210    0.68710    1.000
    O2       O        0.95100    0.10390    0.11660    1.000
    O3       O        0.04900    0.89610    0.88340    1.000
    O4       O        0.95540    0.63440    0.58600    1.000
    O5       O        0.92060    0.84510    0.55090    1.000
    O6       O        0.04460    0.36560    0.41400    1.000
    O7       O        0.95380    0.07790    0.31290    1.000
    O8       O        0.07940    0.15490    0.44910    1.000
