# CIF file generated by openbabel 3.1.0, see https://openbabel.org
data_I
_chemical_name_common 'image0'
_cell_length_a 18.335
_cell_length_b 14.628
_cell_length_c 12.383
_cell_angle_alpha 90
_cell_angle_beta 113
_cell_angle_gamma 90
_space_group_name_H-M_alt 'P 1'
_space_group_name_Hall 'P 1'
loop_
    _symmetry_equiv_pos_as_xyz
    x,y,z
loop_
    _atom_site_label
    _atom_site_type_symbol
    _atom_site_fract_x
    _atom_site_fract_y
    _atom_site_fract_z
    _atom_site_occupancy
    Ag1      Ag       0.24823    0.19769    0.74440    1.000
    Ag2      Ag       0.57796    0.69009    0.87602    1.000
    Cr1      Cr       0.29060    0.49561    0.47630    1.000
    O1       O        0.35190    0.42120    0.61350    1.000
    O2       O        0.20720    0.40910    0.46550    1.000
    O3       O        0.34160    0.30020    0.71690    1.000
    O4       O        0.18360    0.28760    0.55930    1.000
    C1       C        0.31490    0.35540    0.63320    1.000
    C2       C        0.22740    0.34800    0.54570    1.000
    O5       O        0.21930    0.56970    0.34360    1.000
    O6       O        0.25810    0.58550    0.56720    1.000
    O7       O        0.64810    0.80400    0.80550    1.000
    O8       O        0.68440    0.78980    0.04520    1.000
    C3       C        0.18890    0.64010    0.37130    1.000
    C4       C        0.21050    0.64740    0.50600    1.000
    O9       O        0.61680    0.57080    0.01050    1.000
    O10      O        0.32640    0.42190    0.37200    1.000
    O11      O        0.52570    0.41360    0.58630    1.000
    O12      O        0.57900    0.58140    0.69890    1.000
    C5       C        0.58140    0.54550    0.07560    1.000
    C6       C        0.38770    0.45300    0.35870    1.000
    Cs1      Cs       0.50880    0.21540    0.86080    1.000
    Ag3      Ag       0.57710    0.15710    0.80340    1.000
    Ag4      Ag       0.54100    0.23430    0.93830    1.000
    O13      O        0.49650    0.79420    0.90490    1.000
    Ag5      Ag       0.74823    0.69769    0.74440    1.000
    Ag6      Ag       0.07796    0.19009    0.87602    1.000
    Cr2      Cr       0.79060    0.99561    0.47630    1.000
    O14      O        0.85190    0.92120    0.61350    1.000
    O15      O        0.70720    0.90910    0.46550    1.000
    O16      O        0.84160    0.80020    0.71690    1.000
    O17      O        0.68360    0.78760    0.55930    1.000
    C7       C        0.81490    0.85540    0.63320    1.000
    C8       C        0.72740    0.84800    0.54570    1.000
    O18      O        0.71930    0.06970    0.34360    1.000
    O19      O        0.75810    0.08550    0.56720    1.000
    O20      O        0.14810    0.30400    0.80550    1.000
    O21      O        0.18440    0.28980    0.04520    1.000
    C9       C        0.68890    0.14010    0.37130    1.000
    C10      C        0.71050    0.14740    0.50600    1.000
    O22      O        0.11680    0.07080    0.01050    1.000
    O23      O        0.82640    0.92190    0.37200    1.000
    O24      O        0.02570    0.91360    0.58630    1.000
    O25      O        0.07900    0.08140    0.69890    1.000
    C11      C        0.08140    0.04550    0.07560    1.000
    C12      C        0.88770    0.95300    0.35870    1.000
    Cs2      Cs       0.00880    0.71540    0.86080    1.000
    Ag7      Ag       0.07710    0.65710    0.80340    1.000
    Ag8      Ag       0.04100    0.73430    0.93830    1.000
    O26      O        0.99650    0.29420    0.90490    1.000
    Ag9      Ag       0.75177    0.19769    0.75560    1.000
    Ag10     Ag       0.42204    0.69009    0.62398    1.000
    Cr3      Cr       0.70940    0.49561    0.02370    1.000
    O27      O        0.64810    0.42120    0.88650    1.000
    O28      O        0.79280    0.40910    0.03450    1.000
    O29      O        0.65840    0.30020    0.78310    1.000
    O30      O        0.81640    0.28760    0.94070    1.000
    C13      C        0.68510    0.35540    0.86680    1.000
    C14      C        0.77260    0.34800    0.95430    1.000
    O31      O        0.78070    0.56970    0.15640    1.000
    O32      O        0.74190    0.58550    0.93280    1.000
    O33      O        0.35190    0.80400    0.69450    1.000
    O34      O        0.31560    0.78980    0.45480    1.000
    C15      C        0.81110    0.64010    0.12870    1.000
    C16      C        0.78950    0.64740    0.99400    1.000
    O35      O        0.38320    0.57080    0.48950    1.000
    O36      O        0.67360    0.42190    0.12800    1.000
    O37      O        0.47430    0.41360    0.91370    1.000
    O38      O        0.42100    0.58140    0.80110    1.000
    C17      C        0.41860    0.54550    0.42440    1.000
    C18      C        0.61230    0.45300    0.14130    1.000
    Cs3      Cs       0.49120    0.21540    0.63920    1.000
    Ag11     Ag       0.42290    0.15710    0.69660    1.000
    Ag12     Ag       0.45900    0.23430    0.56170    1.000
    O39      O        0.50350    0.79420    0.59510    1.000
    Ag13     Ag       0.25177    0.69769    0.75560    1.000
    Ag14     Ag       0.92204    0.19009    0.62398    1.000
    Cr4      Cr       0.20940    0.99561    0.02370    1.000
    O40      O        0.14810    0.92120    0.88650    1.000
    O41      O        0.29280    0.90910    0.03450    1.000
    O42      O        0.15840    0.80020    0.78310    1.000
    O43      O        0.31640    0.78760    0.94070    1.000
    C19      C        0.18510    0.85540    0.86680    1.000
    C20      C        0.27260    0.84800    0.95430    1.000
    O44      O        0.28070    0.06970    0.15640    1.000
    O45      O        0.24190    0.08550    0.93280    1.000
    O46      O        0.85190    0.30400    0.69450    1.000
    O47      O        0.81560    0.28980    0.45480    1.000
    C21      C        0.31110    0.14010    0.12870    1.000
    C22      C        0.28950    0.14740    0.99400    1.000
    O48      O        0.88320    0.07080    0.48950    1.000
    O49      O        0.17360    0.92190    0.12800    1.000
    O50      O        0.97430    0.91360    0.91370    1.000
    O51      O        0.92100    0.08140    0.80110    1.000
    C23      C        0.91860    0.04550    0.42440    1.000
    C24      C        0.11230    0.95300    0.14130    1.000
    Cs4      Cs       0.99120    0.71540    0.63920    1.000
    Ag15     Ag       0.92290    0.65710    0.69660    1.000
    Ag16     Ag       0.95900    0.73430    0.56170    1.000
    O52      O        0.00350    0.29420    0.59510    1.000
    Ag17     Ag       0.75177    0.80231    0.25560    1.000
    Ag18     Ag       0.42204    0.30991    0.12398    1.000
    Cr5      Cr       0.70940    0.50439    0.52370    1.000
    O53      O        0.64810    0.57880    0.38650    1.000
    O54      O        0.79280    0.59090    0.53450    1.000
    O55      O        0.65840    0.69980    0.28310    1.000
    O56      O        0.81640    0.71240    0.44070    1.000
    C25      C        0.68510    0.64460    0.36680    1.000
    C26      C        0.77260    0.65200    0.45430    1.000
    O57      O        0.78070    0.43030    0.65640    1.000
    O58      O        0.74190    0.41450    0.43280    1.000
    O59      O        0.35190    0.19600    0.19450    1.000
    O60      O        0.31560    0.21020    0.95480    1.000
    C27      C        0.81110    0.35990    0.62870    1.000
    C28      C        0.78950    0.35260    0.49400    1.000
    O61      O        0.38320    0.42920    0.98950    1.000
    O62      O        0.67360    0.57810    0.62800    1.000
    O63      O        0.47430    0.58640    0.41370    1.000
    O64      O        0.42100    0.41860    0.30110    1.000
    C29      C        0.41860    0.45450    0.92440    1.000
    C30      C        0.61230    0.54700    0.64130    1.000
    Cs5      Cs       0.49120    0.78460    0.13920    1.000
    Ag19     Ag       0.42290    0.84290    0.19660    1.000
    Ag20     Ag       0.45900    0.76570    0.06170    1.000
    O65      O        0.50350    0.20580    0.09510    1.000
    Ag21     Ag       0.25177    0.30231    0.25560    1.000
    Ag22     Ag       0.92204    0.80991    0.12398    1.000
    Cr6      Cr       0.20940    0.00439    0.52370    1.000
    O66      O        0.14810    0.07880    0.38650    1.000
    O67      O        0.29280    0.09090    0.53450    1.000
    O68      O        0.15840    0.19980    0.28310    1.000
    O69      O        0.31640    0.21240    0.44070    1.000
    C31      C        0.18510    0.14460    0.36680    1.000
    C32      C        0.27260    0.15200    0.45430    1.000
    O70      O        0.28070    0.93030    0.65640    1.000
    O71      O        0.24190    0.91450    0.43280    1.000
    O72      O        0.85190    0.69600    0.19450    1.000
    O73      O        0.81560    0.71020    0.95480    1.000
    C33      C        0.31110    0.85990    0.62870    1.000
    C34      C        0.28950    0.85260    0.49400    1.000
    O74      O        0.88320    0.92920    0.98950    1.000
    O75      O        0.17360    0.07810    0.62800    1.000
    O76      O        0.97430    0.08640    0.41370    1.000
    O77      O        0.92100    0.91860    0.30110    1.000
    C35      C        0.91860    0.95450    0.92440    1.000
    C36      C        0.11230    0.04700    0.64130    1.000
    Cs6      Cs       0.99120    0.28460    0.13920    1.000
    Ag23     Ag       0.92290    0.34290    0.19660    1.000
    Ag24     Ag       0.95900    0.26570    0.06170    1.000
    O78      O        0.00350    0.70580    0.09510    1.000
    Ag25     Ag       0.24823    0.80231    0.24440    1.000
    Ag26     Ag       0.57796    0.30991    0.37602    1.000
    Cr7      Cr       0.29060    0.50439    0.97630    1.000
    O79      O        0.35190    0.57880    0.11350    1.000
    O80      O        0.20720    0.59090    0.96550    1.000
    O81      O        0.34160    0.69980    0.21690    1.000
    O82      O        0.18360    0.71240    0.05930    1.000
    C37      C        0.31490    0.64460    0.13320    1.000
    C38      C        0.22740    0.65200    0.04570    1.000
    O83      O        0.21930    0.43030    0.84360    1.000
    O84      O        0.25810    0.41450    0.06720    1.000
    O85      O        0.64810    0.19600    0.30550    1.000
    O86      O        0.68440    0.21020    0.54520    1.000
    C39      C        0.18890    0.35990    0.87130    1.000
    C40      C        0.21050    0.35260    0.00600    1.000
    O87      O        0.61680    0.42920    0.51050    1.000
    O88      O        0.32640    0.57810    0.87200    1.000
    O89      O        0.52570    0.58640    0.08630    1.000
    O90      O        0.57900    0.41860    0.19890    1.000
    C41      C        0.58140    0.45450    0.57560    1.000
    C42      C        0.38770    0.54700    0.85870    1.000
    Cs7      Cs       0.50880    0.78460    0.36080    1.000
    Ag27     Ag       0.57710    0.84290    0.30340    1.000
    Ag28     Ag       0.54100    0.76570    0.43830    1.000
    O91      O        0.49650    0.20580    0.40490    1.000
    Ag29     Ag       0.74823    0.30231    0.24440    1.000
    Ag30     Ag       0.07796    0.80991    0.37602    1.000
    Cr8      Cr       0.79060    0.00439    0.97630    1.000
    O92      O        0.85190    0.07880    0.11350    1.000
    O93      O        0.70720    0.09090    0.96550    1.000
    O94      O        0.84160    0.19980    0.21690    1.000
    O95      O        0.68360    0.21240    0.05930    1.000
    C43      C        0.81490    0.14460    0.13320    1.000
    C44      C        0.72740    0.15200    0.04570    1.000
    O96      O        0.71930    0.93030    0.84360    1.000
    O97      O        0.75810    0.91450    0.06720    1.000
    O98      O        0.14810    0.69600    0.30550    1.000
    O99      O        0.18440    0.71020    0.54520    1.000
    C45      C        0.68890    0.85990    0.87130    1.000
    C46      C        0.71050    0.85260    0.00600    1.000
    O100     O        0.11680    0.92920    0.51050    1.000
    O101     O        0.82640    0.07810    0.87200    1.000
    O102     O        0.02570    0.08640    0.08630    1.000
    O103     O        0.07900    0.91860    0.19890    1.000
    C47      C        0.08140    0.95450    0.57560    1.000
    C48      C        0.88770    0.04700    0.85870    1.000
    Cs8      Cs       0.00880    0.28460    0.36080    1.000
    Ag31     Ag       0.07710    0.34290    0.30340    1.000
    Ag32     Ag       0.04100    0.26570    0.43830    1.000
    O104     O        0.99650    0.70580    0.40490    1.000
    Ag33     Ag       0.50000    0.46413    0.75000    1.000
    Ag34     Ag       0.00000    0.96413    0.75000    1.000
    Ag35     Ag       0.50000    0.53587    0.25000    1.000
    Ag36     Ag       0.00000    0.03587    0.25000    1.000
