# CIF file generated by openbabel 3.1.0, see https://openbabel.org
data_I
_chemical_name_common 'cg500175k_si_001'
_cell_length_a 36.4789
_cell_length_b 36.4789
_cell_length_c 36.4789
_cell_angle_alpha 90
_cell_angle_beta 90
_cell_angle_gamma 90
_space_group_name_H-M_alt 'P 1'
_space_group_name_Hall 'P 1'
loop_
    _symmetry_equiv_pos_as_xyz
    x,y,z
loop_
    _atom_site_label
    _atom_site_type_symbol
    _atom_site_fract_x
    _atom_site_fract_y
    _atom_site_fract_z
    _atom_site_occupancy
    C1       C        0.37095    0.31683    0.33871    1.000
    C2       C        0.36771    0.34532    0.31352    1.000
    C3       C        0.40023    0.29390    0.33064    1.000
    C4       C        0.41894    0.30537    0.29931    1.000
    S5       S        0.40049    0.34450    0.27980    1.000
    H6       H        0.40730    0.26971    0.34630    1.000
    O7       O        0.24747    0.03598    0.29816    1.000
    O8       O        0.29526    0.03722    0.24450    1.000
    C9       C        0.21811    0.04968    0.28540    1.000
    C10      C        0.37095    0.81683    0.83871    1.000
    C11      C        0.36771    0.84532    0.81352    1.000
    C12      C        0.40023    0.79390    0.83064    1.000
    C13      C        0.41894    0.80537    0.79931    1.000
    S14      S        0.40049    0.84450    0.77980    1.000
    H15      H        0.40730    0.76971    0.84630    1.000
    O16      O        0.24747    0.53598    0.79816    1.000
    O17      O        0.29526    0.53722    0.74450    1.000
    C18      C        0.21811    0.54968    0.78540    1.000
    C19      C        0.87095    0.31683    0.83871    1.000
    C20      C        0.86771    0.34532    0.81352    1.000
    C21      C        0.90023    0.29390    0.83064    1.000
    C22      C        0.91894    0.30537    0.79931    1.000
    S23      S        0.90049    0.34450    0.77980    1.000
    H24      H        0.90730    0.26971    0.84630    1.000
    O25      O        0.74747    0.03598    0.79816    1.000
    O26      O        0.79526    0.03722    0.74450    1.000
    C27      C        0.71811    0.04968    0.78540    1.000
    C28      C        0.87095    0.81683    0.33871    1.000
    C29      C        0.86771    0.84532    0.31352    1.000
    C30      C        0.90023    0.79390    0.33064    1.000
    C31      C        0.91894    0.80537    0.29931    1.000
    S32      S        0.90049    0.84450    0.27980    1.000
    H33      H        0.90730    0.76971    0.34630    1.000
    O34      O        0.74747    0.53598    0.29816    1.000
    O35      O        0.79526    0.53722    0.24450    1.000
    C36      C        0.71811    0.54968    0.28540    1.000
    C37      C        0.62905    0.68317    0.33871    1.000
    C38      C        0.63229    0.65468    0.31352    1.000
    C39      C        0.59977    0.70610    0.33064    1.000
    C40      C        0.58106    0.69463    0.29931    1.000
    S41      S        0.59951    0.65550    0.27980    1.000
    H42      H        0.59270    0.73029    0.34630    1.000
    O43      O        0.75253    0.96402    0.29816    1.000
    O44      O        0.70474    0.96278    0.24450    1.000
    C45      C        0.78189    0.95032    0.28540    1.000
    C46      C        0.62905    0.18317    0.83871    1.000
    C47      C        0.63229    0.15468    0.81352    1.000
    C48      C        0.59977    0.20610    0.83064    1.000
    C49      C        0.58106    0.19463    0.79931    1.000
    S50      S        0.59951    0.15550    0.77980    1.000
    H51      H        0.59270    0.23029    0.84630    1.000
    O52      O        0.75253    0.46402    0.79816    1.000
    O53      O        0.70474    0.46278    0.74450    1.000
    C54      C        0.78189    0.45032    0.78540    1.000
    C55      C        0.12905    0.68317    0.83871    1.000
    C56      C        0.13229    0.65468    0.81352    1.000
    C57      C        0.09977    0.70610    0.83064    1.000
    C58      C        0.08106    0.69463    0.79931    1.000
    S59      S        0.09951    0.65550    0.77980    1.000
    H60      H        0.09270    0.73029    0.84630    1.000
    O61      O        0.25253    0.96402    0.79816    1.000
    O62      O        0.20474    0.96278    0.74450    1.000
    C63      C        0.28189    0.95032    0.78540    1.000
    C64      C        0.12905    0.18317    0.33871    1.000
    C65      C        0.13229    0.15468    0.31352    1.000
    C66      C        0.09977    0.20610    0.33064    1.000
    C67      C        0.08106    0.19463    0.29931    1.000
    S68      S        0.09951    0.15550    0.27980    1.000
    H69      H        0.09270    0.23029    0.34630    1.000
    O70      O        0.25253    0.46402    0.29816    1.000
    O71      O        0.20474    0.46278    0.24450    1.000
    C72      C        0.28189    0.45032    0.28540    1.000
    C73      C        0.62905    0.31683    0.66129    1.000
    C74      C        0.63229    0.34532    0.68648    1.000
    C75      C        0.59977    0.29390    0.66936    1.000
    C76      C        0.58106    0.30537    0.70069    1.000
    S77      S        0.59951    0.34450    0.72020    1.000
    H78      H        0.59270    0.26971    0.65370    1.000
    O79      O        0.75253    0.03598    0.70184    1.000
    O80      O        0.70474    0.03722    0.75550    1.000
    C81      C        0.78189    0.04968    0.71460    1.000
    C82      C        0.62905    0.81683    0.16129    1.000
    C83      C        0.63229    0.84532    0.18648    1.000
    C84      C        0.59977    0.79390    0.16936    1.000
    C85      C        0.58106    0.80537    0.20069    1.000
    S86      S        0.59951    0.84450    0.22020    1.000
    H87      H        0.59270    0.76971    0.15370    1.000
    O88      O        0.75253    0.53598    0.20184    1.000
    O89      O        0.70474    0.53722    0.25550    1.000
    C90      C        0.78189    0.54968    0.21460    1.000
    C91      C        0.12905    0.31683    0.16129    1.000
    C92      C        0.13229    0.34532    0.18648    1.000
    C93      C        0.09977    0.29390    0.16936    1.000
    C94      C        0.08106    0.30537    0.20069    1.000
    S95      S        0.09951    0.34450    0.22020    1.000
    H96      H        0.09270    0.26971    0.15370    1.000
    O97      O        0.25253    0.03598    0.20184    1.000
    O98      O        0.20474    0.03722    0.25550    1.000
    C99      C        0.28189    0.04968    0.21460    1.000
    C100     C        0.12905    0.81683    0.66129    1.000
    C101     C        0.13229    0.84532    0.68648    1.000
    C102     C        0.09977    0.79390    0.66936    1.000
    C103     C        0.08106    0.80537    0.70069    1.000
    S104     S        0.09951    0.84450    0.72020    1.000
    H105     H        0.09270    0.76971    0.65370    1.000
    O106     O        0.25253    0.53598    0.70184    1.000
    O107     O        0.20474    0.53722    0.75550    1.000
    C108     C        0.28189    0.54968    0.71460    1.000
    C109     C        0.37095    0.68317    0.66129    1.000
    C110     C        0.36771    0.65468    0.68648    1.000
    C111     C        0.40023    0.70610    0.66936    1.000
    C112     C        0.41894    0.69463    0.70069    1.000
    S113     S        0.40049    0.65550    0.72020    1.000
    H114     H        0.40730    0.73029    0.65370    1.000
    O115     O        0.24747    0.96402    0.70184    1.000
    O116     O        0.29526    0.96278    0.75550    1.000
    C117     C        0.21811    0.95032    0.71460    1.000
    C118     C        0.37095    0.18317    0.16129    1.000
    C119     C        0.36771    0.15468    0.18648    1.000
    C120     C        0.40023    0.20610    0.16936    1.000
    C121     C        0.41894    0.19463    0.20069    1.000
    S122     S        0.40049    0.15550    0.22020    1.000
    H123     H        0.40730    0.23029    0.15370    1.000
    O124     O        0.24747    0.46402    0.20184    1.000
    O125     O        0.29526    0.46278    0.25550    1.000
    C126     C        0.21811    0.45032    0.21460    1.000
    C127     C        0.87095    0.68317    0.16129    1.000
    C128     C        0.86771    0.65468    0.18648    1.000
    C129     C        0.90023    0.70610    0.16936    1.000
    C130     C        0.91894    0.69463    0.20069    1.000
    S131     S        0.90049    0.65550    0.22020    1.000
    H132     H        0.90730    0.73029    0.15370    1.000
    O133     O        0.74747    0.96402    0.20184    1.000
    O134     O        0.79526    0.96278    0.25550    1.000
    C135     C        0.71811    0.95032    0.21460    1.000
    C136     C        0.87095    0.18317    0.66129    1.000
    C137     C        0.86771    0.15468    0.68648    1.000
    C138     C        0.90023    0.20610    0.66936    1.000
    C139     C        0.91894    0.19463    0.70069    1.000
    S140     S        0.90049    0.15550    0.72020    1.000
    H141     H        0.90730    0.23029    0.65370    1.000
    O142     O        0.74747    0.46402    0.70184    1.000
    O143     O        0.79526    0.46278    0.75550    1.000
    C144     C        0.71811    0.45032    0.71460    1.000
    C145     C        0.33871    0.37095    0.31683    1.000
    C146     C        0.31352    0.36771    0.34532    1.000
    C147     C        0.33064    0.40023    0.29390    1.000
    C148     C        0.29931    0.41894    0.30537    1.000
    S149     S        0.27980    0.40049    0.34450    1.000
    H150     H        0.34630    0.40730    0.26971    1.000
    O151     O        0.29816    0.24747    0.03598    1.000
    O152     O        0.24450    0.29526    0.03722    1.000
    C153     C        0.28540    0.21811    0.04968    1.000
    C154     C        0.33871    0.87095    0.81683    1.000
    C155     C        0.31352    0.86771    0.84532    1.000
    C156     C        0.33064    0.90023    0.79390    1.000
    C157     C        0.29931    0.91894    0.80537    1.000
    S158     S        0.27980    0.90049    0.84450    1.000
    H159     H        0.34630    0.90730    0.76971    1.000
    O160     O        0.29816    0.74747    0.53598    1.000
    O161     O        0.24450    0.79526    0.53722    1.000
    C162     C        0.28540    0.71811    0.54968    1.000
    C163     C        0.83871    0.37095    0.81683    1.000
    C164     C        0.81352    0.36771    0.84532    1.000
    C165     C        0.83064    0.40023    0.79390    1.000
    C166     C        0.79931    0.41894    0.80537    1.000
    S167     S        0.77980    0.40049    0.84450    1.000
    H168     H        0.84630    0.40730    0.76971    1.000
    O169     O        0.79816    0.24747    0.53598    1.000
    O170     O        0.74450    0.29526    0.53722    1.000
    C171     C        0.78540    0.21811    0.54968    1.000
    C172     C        0.83871    0.87095    0.31683    1.000
    C173     C        0.81352    0.86771    0.34532    1.000
    C174     C        0.83064    0.90023    0.29390    1.000
    C175     C        0.79931    0.91894    0.30537    1.000
    S176     S        0.77980    0.90049    0.34450    1.000
    H177     H        0.84630    0.90730    0.26971    1.000
    O178     O        0.79816    0.74747    0.03598    1.000
    O179     O        0.74450    0.79526    0.03722    1.000
    C180     C        0.78540    0.71811    0.04968    1.000
    C181     C        0.33871    0.62905    0.68317    1.000
    C182     C        0.31352    0.63229    0.65468    1.000
    C183     C        0.33064    0.59977    0.70610    1.000
    C184     C        0.29931    0.58106    0.69463    1.000
    S185     S        0.27980    0.59951    0.65550    1.000
    H186     H        0.34630    0.59270    0.73029    1.000
    O187     O        0.29816    0.75253    0.96402    1.000
    O188     O        0.24450    0.70474    0.96278    1.000
    C189     C        0.28540    0.78189    0.95032    1.000
    C190     C        0.33871    0.12905    0.18317    1.000
    C191     C        0.31352    0.13229    0.15468    1.000
    C192     C        0.33064    0.09977    0.20610    1.000
    C193     C        0.29931    0.08106    0.19463    1.000
    S194     S        0.27980    0.09951    0.15550    1.000
    H195     H        0.34630    0.09270    0.23029    1.000
    O196     O        0.29816    0.25253    0.46402    1.000
    O197     O        0.24450    0.20474    0.46278    1.000
    C198     C        0.28540    0.28189    0.45032    1.000
    C199     C        0.83871    0.62905    0.18317    1.000
    C200     C        0.81352    0.63229    0.15468    1.000
    C201     C        0.83064    0.59977    0.20610    1.000
    C202     C        0.79931    0.58106    0.19463    1.000
    S203     S        0.77980    0.59951    0.15550    1.000
    H204     H        0.84630    0.59270    0.23029    1.000
    O205     O        0.79816    0.75253    0.46402    1.000
    O206     O        0.74450    0.70474    0.46278    1.000
    C207     C        0.78540    0.78189    0.45032    1.000
    C208     C        0.83871    0.12905    0.68317    1.000
    C209     C        0.81352    0.13229    0.65468    1.000
    C210     C        0.83064    0.09977    0.70610    1.000
    C211     C        0.79931    0.08106    0.69463    1.000
    S212     S        0.77980    0.09951    0.65550    1.000
    H213     H        0.84630    0.09270    0.73029    1.000
    O214     O        0.79816    0.25253    0.96402    1.000
    O215     O        0.74450    0.20474    0.96278    1.000
    C216     C        0.78540    0.28189    0.95032    1.000
    C217     C        0.66129    0.62905    0.31683    1.000
    C218     C        0.68648    0.63229    0.34532    1.000
    C219     C        0.66936    0.59977    0.29390    1.000
    C220     C        0.70069    0.58106    0.30537    1.000
    S221     S        0.72020    0.59951    0.34450    1.000
    H222     H        0.65370    0.59270    0.26971    1.000
    O223     O        0.70184    0.75253    0.03598    1.000
    O224     O        0.75550    0.70474    0.03722    1.000
    C225     C        0.71460    0.78189    0.04968    1.000
    C226     C        0.66129    0.12905    0.81683    1.000
    C227     C        0.68648    0.13229    0.84532    1.000
    C228     C        0.66936    0.09977    0.79390    1.000
    C229     C        0.70069    0.08106    0.80537    1.000
    S230     S        0.72020    0.09951    0.84450    1.000
    H231     H        0.65370    0.09270    0.76971    1.000
    O232     O        0.70184    0.25253    0.53598    1.000
    O233     O        0.75550    0.20474    0.53722    1.000
    C234     C        0.71460    0.28189    0.54968    1.000
    C235     C        0.16129    0.62905    0.81683    1.000
    C236     C        0.18648    0.63229    0.84532    1.000
    C237     C        0.16936    0.59977    0.79390    1.000
    C238     C        0.20069    0.58106    0.80537    1.000
    S239     S        0.22020    0.59951    0.84450    1.000
    H240     H        0.15370    0.59270    0.76971    1.000
    O241     O        0.20184    0.75253    0.53598    1.000
    O242     O        0.25550    0.70474    0.53722    1.000
    C243     C        0.21460    0.78189    0.54968    1.000
    C244     C        0.16129    0.12905    0.31683    1.000
    C245     C        0.18648    0.13229    0.34532    1.000
    C246     C        0.16936    0.09977    0.29390    1.000
    C247     C        0.20069    0.08106    0.30537    1.000
    S248     S        0.22020    0.09951    0.34450    1.000
    H249     H        0.15370    0.09270    0.26971    1.000
    O250     O        0.20184    0.25253    0.03598    1.000
    O251     O        0.25550    0.20474    0.03722    1.000
    C252     C        0.21460    0.28189    0.04968    1.000
    C253     C        0.66129    0.37095    0.68317    1.000
    C254     C        0.68648    0.36771    0.65468    1.000
    C255     C        0.66936    0.40023    0.70610    1.000
    C256     C        0.70069    0.41894    0.69463    1.000
    S257     S        0.72020    0.40049    0.65550    1.000
    H258     H        0.65370    0.40730    0.73029    1.000
    O259     O        0.70184    0.24747    0.96402    1.000
    O260     O        0.75550    0.29526    0.96278    1.000
    C261     C        0.71460    0.21811    0.95032    1.000
    C262     C        0.66129    0.87095    0.18317    1.000
    C263     C        0.68648    0.86771    0.15468    1.000
    C264     C        0.66936    0.90023    0.20610    1.000
    C265     C        0.70069    0.91894    0.19463    1.000
    S266     S        0.72020    0.90049    0.15550    1.000
    H267     H        0.65370    0.90730    0.23029    1.000
    O268     O        0.70184    0.74747    0.46402    1.000
    O269     O        0.75550    0.79526    0.46278    1.000
    C270     C        0.71460    0.71811    0.45032    1.000
    C271     C        0.16129    0.37095    0.18317    1.000
    C272     C        0.18648    0.36771    0.15468    1.000
    C273     C        0.16936    0.40023    0.20610    1.000
    C274     C        0.20069    0.41894    0.19463    1.000
    S275     S        0.22020    0.40049    0.15550    1.000
    H276     H        0.15370    0.40730    0.23029    1.000
    O277     O        0.20184    0.24747    0.46402    1.000
    O278     O        0.25550    0.29526    0.46278    1.000
    C279     C        0.21460    0.21811    0.45032    1.000
    C280     C        0.16129    0.87095    0.68317    1.000
    C281     C        0.18648    0.86771    0.65468    1.000
    C282     C        0.16936    0.90023    0.70610    1.000
    C283     C        0.20069    0.91894    0.69463    1.000
    S284     S        0.22020    0.90049    0.65550    1.000
    H285     H        0.15370    0.90730    0.73029    1.000
    O286     O        0.20184    0.74747    0.96402    1.000
    O287     O        0.25550    0.79526    0.96278    1.000
    C288     C        0.21460    0.71811    0.95032    1.000
    C289     C        0.31683    0.33871    0.37095    1.000
    C290     C        0.34532    0.31352    0.36771    1.000
    C291     C        0.29390    0.33064    0.40023    1.000
    C292     C        0.30537    0.29931    0.41894    1.000
    S293     S        0.34450    0.27980    0.40049    1.000
    H294     H        0.26971    0.34630    0.40730    1.000
    O295     O        0.03598    0.29816    0.24747    1.000
    O296     O        0.03722    0.24450    0.29526    1.000
    C297     C        0.04968    0.28540    0.21811    1.000
    C298     C        0.31683    0.83871    0.87095    1.000
    C299     C        0.34532    0.81352    0.86771    1.000
    C300     C        0.29390    0.83064    0.90023    1.000
    C301     C        0.30537    0.79931    0.91894    1.000
    S302     S        0.34450    0.77980    0.90049    1.000
    H303     H        0.26971    0.84630    0.90730    1.000
    O304     O        0.03598    0.79816    0.74747    1.000
    O305     O        0.03722    0.74450    0.79526    1.000
    C306     C        0.04968    0.78540    0.71811    1.000
    C307     C        0.81683    0.33871    0.87095    1.000
    C308     C        0.84532    0.31352    0.86771    1.000
    C309     C        0.79390    0.33064    0.90023    1.000
    C310     C        0.80537    0.29931    0.91894    1.000
    S311     S        0.84450    0.27980    0.90049    1.000
    H312     H        0.76971    0.34630    0.90730    1.000
    O313     O        0.53598    0.29816    0.74747    1.000
    O314     O        0.53722    0.24450    0.79526    1.000
    C315     C        0.54968    0.28540    0.71811    1.000
    C316     C        0.81683    0.83871    0.37095    1.000
    C317     C        0.84532    0.81352    0.36771    1.000
    C318     C        0.79390    0.83064    0.40023    1.000
    C319     C        0.80537    0.79931    0.41894    1.000
    S320     S        0.84450    0.77980    0.40049    1.000
    H321     H        0.76971    0.84630    0.40730    1.000
    O322     O        0.53598    0.79816    0.24747    1.000
    O323     O        0.53722    0.74450    0.29526    1.000
    C324     C        0.54968    0.78540    0.21811    1.000
    C325     C        0.68317    0.33871    0.62905    1.000
    C326     C        0.65468    0.31352    0.63229    1.000
    C327     C        0.70610    0.33064    0.59977    1.000
    C328     C        0.69463    0.29931    0.58106    1.000
    S329     S        0.65550    0.27980    0.59951    1.000
    H330     H        0.73029    0.34630    0.59270    1.000
    O331     O        0.96402    0.29816    0.75253    1.000
    O332     O        0.96278    0.24450    0.70474    1.000
    C333     C        0.95032    0.28540    0.78189    1.000
    C334     C        0.68317    0.83871    0.12905    1.000
    C335     C        0.65468    0.81352    0.13229    1.000
    C336     C        0.70610    0.83064    0.09977    1.000
    C337     C        0.69463    0.79931    0.08106    1.000
    S338     S        0.65550    0.77980    0.09951    1.000
    H339     H        0.73029    0.84630    0.09270    1.000
    O340     O        0.96402    0.79816    0.25253    1.000
    O341     O        0.96278    0.74450    0.20474    1.000
    C342     C        0.95032    0.78540    0.28189    1.000
    C343     C        0.18317    0.33871    0.12905    1.000
    C344     C        0.15468    0.31352    0.13229    1.000
    C345     C        0.20610    0.33064    0.09977    1.000
    C346     C        0.19463    0.29931    0.08106    1.000
    S347     S        0.15550    0.27980    0.09951    1.000
    H348     H        0.23029    0.34630    0.09270    1.000
    O349     O        0.46402    0.29816    0.25253    1.000
    O350     O        0.46278    0.24450    0.20474    1.000
    C351     C        0.45032    0.28540    0.28189    1.000
    C352     C        0.18317    0.83871    0.62905    1.000
    C353     C        0.15468    0.81352    0.63229    1.000
    C354     C        0.20610    0.83064    0.59977    1.000
    C355     C        0.19463    0.79931    0.58106    1.000
    S356     S        0.15550    0.77980    0.59951    1.000
    H357     H        0.23029    0.84630    0.59270    1.000
    O358     O        0.46402    0.79816    0.75253    1.000
    O359     O        0.46278    0.74450    0.70474    1.000
    C360     C        0.45032    0.78540    0.78189    1.000
    C361     C        0.31683    0.66129    0.62905    1.000
    C362     C        0.34532    0.68648    0.63229    1.000
    C363     C        0.29390    0.66936    0.59977    1.000
    C364     C        0.30537    0.70069    0.58106    1.000
    S365     S        0.34450    0.72020    0.59951    1.000
    H366     H        0.26971    0.65370    0.59270    1.000
    O367     O        0.03598    0.70184    0.75253    1.000
    O368     O        0.03722    0.75550    0.70474    1.000
    C369     C        0.04968    0.71460    0.78189    1.000
    C370     C        0.31683    0.16129    0.12905    1.000
    C371     C        0.34532    0.18648    0.13229    1.000
    C372     C        0.29390    0.16936    0.09977    1.000
    C373     C        0.30537    0.20069    0.08106    1.000
    S374     S        0.34450    0.22020    0.09951    1.000
    H375     H        0.26971    0.15370    0.09270    1.000
    O376     O        0.03598    0.20184    0.25253    1.000
    O377     O        0.03722    0.25550    0.20474    1.000
    C378     C        0.04968    0.21460    0.28189    1.000
    C379     C        0.81683    0.66129    0.12905    1.000
    C380     C        0.84532    0.68648    0.13229    1.000
    C381     C        0.79390    0.66936    0.09977    1.000
    C382     C        0.80537    0.70069    0.08106    1.000
    S383     S        0.84450    0.72020    0.09951    1.000
    H384     H        0.76971    0.65370    0.09270    1.000
    O385     O        0.53598    0.70184    0.25253    1.000
    O386     O        0.53722    0.75550    0.20474    1.000
    C387     C        0.54968    0.71460    0.28189    1.000
    C388     C        0.81683    0.16129    0.62905    1.000
    C389     C        0.84532    0.18648    0.63229    1.000
    C390     C        0.79390    0.16936    0.59977    1.000
    C391     C        0.80537    0.20069    0.58106    1.000
    S392     S        0.84450    0.22020    0.59951    1.000
    H393     H        0.76971    0.15370    0.59270    1.000
    O394     O        0.53598    0.20184    0.75253    1.000
    O395     O        0.53722    0.25550    0.70474    1.000
    C396     C        0.54968    0.21460    0.78189    1.000
    C397     C        0.68317    0.66129    0.37095    1.000
    C398     C        0.65468    0.68648    0.36771    1.000
    C399     C        0.70610    0.66936    0.40023    1.000
    C400     C        0.69463    0.70069    0.41894    1.000
    S401     S        0.65550    0.72020    0.40049    1.000
    H402     H        0.73029    0.65370    0.40730    1.000
    O403     O        0.96402    0.70184    0.24747    1.000
    O404     O        0.96278    0.75550    0.29526    1.000
    C405     C        0.95032    0.71460    0.21811    1.000
    C406     C        0.68317    0.16129    0.87095    1.000
    C407     C        0.65468    0.18648    0.86771    1.000
    C408     C        0.70610    0.16936    0.90023    1.000
    C409     C        0.69463    0.20069    0.91894    1.000
    S410     S        0.65550    0.22020    0.90049    1.000
    H411     H        0.73029    0.15370    0.90730    1.000
    O412     O        0.96402    0.20184    0.74747    1.000
    O413     O        0.96278    0.25550    0.79526    1.000
    C414     C        0.95032    0.21460    0.71811    1.000
    C415     C        0.18317    0.66129    0.87095    1.000
    C416     C        0.15468    0.68648    0.86771    1.000
    C417     C        0.20610    0.66936    0.90023    1.000
    C418     C        0.19463    0.70069    0.91894    1.000
    S419     S        0.15550    0.72020    0.90049    1.000
    H420     H        0.23029    0.65370    0.90730    1.000
    O421     O        0.46402    0.70184    0.74747    1.000
    O422     O        0.46278    0.75550    0.79526    1.000
    C423     C        0.45032    0.71460    0.71811    1.000
    C424     C        0.18317    0.16129    0.37095    1.000
    C425     C        0.15468    0.18648    0.36771    1.000
    C426     C        0.20610    0.16936    0.40023    1.000
    C427     C        0.19463    0.20069    0.41894    1.000
    S428     S        0.15550    0.22020    0.40049    1.000
    H429     H        0.23029    0.15370    0.40730    1.000
    O430     O        0.46402    0.20184    0.24747    1.000
    O431     O        0.46278    0.25550    0.29526    1.000
    C432     C        0.45032    0.21460    0.21811    1.000
    C433     C        0.31683    0.37095    0.66129    1.000
    C434     C        0.34532    0.36771    0.68648    1.000
    C435     C        0.29390    0.40023    0.66936    1.000
    C436     C        0.30537    0.41894    0.70069    1.000
    S437     S        0.34450    0.40049    0.72020    1.000
    H438     H        0.26971    0.40730    0.65370    1.000
    O439     O        0.03598    0.24747    0.70184    1.000
    O440     O        0.03722    0.29526    0.75550    1.000
    C441     C        0.04968    0.21811    0.71460    1.000
    C442     C        0.31683    0.87095    0.16129    1.000
    C443     C        0.34532    0.86771    0.18648    1.000
    C444     C        0.29390    0.90023    0.16936    1.000
    C445     C        0.30537    0.91894    0.20069    1.000
    S446     S        0.34450    0.90049    0.22020    1.000
    H447     H        0.26971    0.90730    0.15370    1.000
    O448     O        0.03598    0.74747    0.20184    1.000
    O449     O        0.03722    0.79526    0.25550    1.000
    C450     C        0.04968    0.71811    0.21460    1.000
    C451     C        0.81683    0.37095    0.16129    1.000
    C452     C        0.84532    0.36771    0.18648    1.000
    C453     C        0.79390    0.40023    0.16936    1.000
    C454     C        0.80537    0.41894    0.20069    1.000
    S455     S        0.84450    0.40049    0.22020    1.000
    H456     H        0.76971    0.40730    0.15370    1.000
    O457     O        0.53598    0.24747    0.20184    1.000
    O458     O        0.53722    0.29526    0.25550    1.000
    C459     C        0.54968    0.21811    0.21460    1.000
    C460     C        0.81683    0.87095    0.66129    1.000
    C461     C        0.84532    0.86771    0.68648    1.000
    C462     C        0.79390    0.90023    0.66936    1.000
    C463     C        0.80537    0.91894    0.70069    1.000
    S464     S        0.84450    0.90049    0.72020    1.000
    H465     H        0.76971    0.90730    0.65370    1.000
    O466     O        0.53598    0.74747    0.70184    1.000
    O467     O        0.53722    0.79526    0.75550    1.000
    C468     C        0.54968    0.71811    0.71460    1.000
    C469     C        0.68317    0.62905    0.66129    1.000
    C470     C        0.65468    0.63229    0.68648    1.000
    C471     C        0.70610    0.59977    0.66936    1.000
    C472     C        0.69463    0.58106    0.70069    1.000
    S473     S        0.65550    0.59951    0.72020    1.000
    H474     H        0.73029    0.59270    0.65370    1.000
    O475     O        0.96402    0.75253    0.70184    1.000
    O476     O        0.96278    0.70474    0.75550    1.000
    C477     C        0.95032    0.78189    0.71460    1.000
    C478     C        0.68317    0.12905    0.16129    1.000
    C479     C        0.65468    0.13229    0.18648    1.000
    C480     C        0.70610    0.09977    0.16936    1.000
    C481     C        0.69463    0.08106    0.20069    1.000
    S482     S        0.65550    0.09951    0.22020    1.000
    H483     H        0.73029    0.09270    0.15370    1.000
    O484     O        0.96402    0.25253    0.20184    1.000
    O485     O        0.96278    0.20474    0.25550    1.000
    C486     C        0.95032    0.28189    0.21460    1.000
    C487     C        0.18317    0.62905    0.16129    1.000
    C488     C        0.15468    0.63229    0.18648    1.000
    C489     C        0.20610    0.59977    0.16936    1.000
    C490     C        0.19463    0.58106    0.20069    1.000
    S491     S        0.15550    0.59951    0.22020    1.000
    H492     H        0.23029    0.59270    0.15370    1.000
    O493     O        0.46402    0.75253    0.20184    1.000
    O494     O        0.46278    0.70474    0.25550    1.000
    C495     C        0.45032    0.78189    0.21460    1.000
    C496     C        0.18317    0.12905    0.66129    1.000
    C497     C        0.15468    0.13229    0.68648    1.000
    C498     C        0.20610    0.09977    0.66936    1.000
    C499     C        0.19463    0.08106    0.70069    1.000
    S500     S        0.15550    0.09951    0.72020    1.000
    H501     H        0.23029    0.09270    0.65370    1.000
    O502     O        0.46402    0.25253    0.70184    1.000
    O503     O        0.46278    0.20474    0.75550    1.000
    C504     C        0.45032    0.28189    0.71460    1.000
    C505     C        0.31683    0.62905    0.33871    1.000
    C506     C        0.34532    0.63229    0.31352    1.000
    C507     C        0.29390    0.59977    0.33064    1.000
    C508     C        0.30537    0.58106    0.29931    1.000
    S509     S        0.34450    0.59951    0.27980    1.000
    H510     H        0.26971    0.59270    0.34630    1.000
    O511     O        0.03598    0.75253    0.29816    1.000
    O512     O        0.03722    0.70474    0.24450    1.000
    C513     C        0.04968    0.78189    0.28540    1.000
    C514     C        0.31683    0.12905    0.83871    1.000
    C515     C        0.34532    0.13229    0.81352    1.000
    C516     C        0.29390    0.09977    0.83064    1.000
    C517     C        0.30537    0.08106    0.79931    1.000
    S518     S        0.34450    0.09951    0.77980    1.000
    H519     H        0.26971    0.09270    0.84630    1.000
    O520     O        0.03598    0.25253    0.79816    1.000
    O521     O        0.03722    0.20474    0.74450    1.000
    C522     C        0.04968    0.28189    0.78540    1.000
    C523     C        0.81683    0.62905    0.83871    1.000
    C524     C        0.84532    0.63229    0.81352    1.000
    C525     C        0.79390    0.59977    0.83064    1.000
    C526     C        0.80537    0.58106    0.79931    1.000
    S527     S        0.84450    0.59951    0.77980    1.000
    H528     H        0.76971    0.59270    0.84630    1.000
    O529     O        0.53598    0.75253    0.79816    1.000
    O530     O        0.53722    0.70474    0.74450    1.000
    C531     C        0.54968    0.78189    0.78540    1.000
    C532     C        0.81683    0.12905    0.33871    1.000
    C533     C        0.84532    0.13229    0.31352    1.000
    C534     C        0.79390    0.09977    0.33064    1.000
    C535     C        0.80537    0.08106    0.29931    1.000
    S536     S        0.84450    0.09951    0.27980    1.000
    H537     H        0.76971    0.09270    0.34630    1.000
    O538     O        0.53598    0.25253    0.29816    1.000
    O539     O        0.53722    0.20474    0.24450    1.000
    C540     C        0.54968    0.28189    0.28540    1.000
    C541     C        0.68317    0.37095    0.33871    1.000
    C542     C        0.65468    0.36771    0.31352    1.000
    C543     C        0.70610    0.40023    0.33064    1.000
    C544     C        0.69463    0.41894    0.29931    1.000
    S545     S        0.65550    0.40049    0.27980    1.000
    H546     H        0.73029    0.40730    0.34630    1.000
    O547     O        0.96402    0.24747    0.29816    1.000
    O548     O        0.96278    0.29526    0.24450    1.000
    C549     C        0.95032    0.21811    0.28540    1.000
    C550     C        0.68317    0.87095    0.83871    1.000
    C551     C        0.65468    0.86771    0.81352    1.000
    C552     C        0.70610    0.90023    0.83064    1.000
    C553     C        0.69463    0.91894    0.79931    1.000
    S554     S        0.65550    0.90049    0.77980    1.000
    H555     H        0.73029    0.90730    0.84630    1.000
    O556     O        0.96402    0.74747    0.79816    1.000
    O557     O        0.96278    0.79526    0.74450    1.000
    C558     C        0.95032    0.71811    0.78540    1.000
    C559     C        0.18317    0.37095    0.83871    1.000
    C560     C        0.15468    0.36771    0.81352    1.000
    C561     C        0.20610    0.40023    0.83064    1.000
    C562     C        0.19463    0.41894    0.79931    1.000
    S563     S        0.15550    0.40049    0.77980    1.000
    H564     H        0.23029    0.40730    0.84630    1.000
    O565     O        0.46402    0.24747    0.79816    1.000
    O566     O        0.46278    0.29526    0.74450    1.000
    C567     C        0.45032    0.21811    0.78540    1.000
    C568     C        0.18317    0.87095    0.33871    1.000
    C569     C        0.15468    0.86771    0.31352    1.000
    C570     C        0.20610    0.90023    0.33064    1.000
    C571     C        0.19463    0.91894    0.29931    1.000
    S572     S        0.15550    0.90049    0.27980    1.000
    H573     H        0.23029    0.90730    0.34630    1.000
    O574     O        0.46402    0.74747    0.29816    1.000
    O575     O        0.46278    0.79526    0.24450    1.000
    C576     C        0.45032    0.71811    0.28540    1.000
    C577     C        0.37095    0.33871    0.68317    1.000
    C578     C        0.36771    0.31352    0.65468    1.000
    C579     C        0.40023    0.33064    0.70610    1.000
    C580     C        0.41894    0.29931    0.69463    1.000
    S581     S        0.40049    0.27980    0.65550    1.000
    H582     H        0.40730    0.34630    0.73029    1.000
    O583     O        0.24747    0.29816    0.96402    1.000
    O584     O        0.29526    0.24450    0.96278    1.000
    C585     C        0.21811    0.28540    0.95032    1.000
    C586     C        0.37095    0.83871    0.18317    1.000
    C587     C        0.36771    0.81352    0.15468    1.000
    C588     C        0.40023    0.83064    0.20610    1.000
    C589     C        0.41894    0.79931    0.19463    1.000
    S590     S        0.40049    0.77980    0.15550    1.000
    H591     H        0.40730    0.84630    0.23029    1.000
    O592     O        0.24747    0.79816    0.46402    1.000
    O593     O        0.29526    0.74450    0.46278    1.000
    C594     C        0.21811    0.78540    0.45032    1.000
    C595     C        0.87095    0.33871    0.18317    1.000
    C596     C        0.86771    0.31352    0.15468    1.000
    C597     C        0.90023    0.33064    0.20610    1.000
    C598     C        0.91894    0.29931    0.19463    1.000
    S599     S        0.90049    0.27980    0.15550    1.000
    H600     H        0.90730    0.34630    0.23029    1.000
    O601     O        0.74747    0.29816    0.46402    1.000
    O602     O        0.79526    0.24450    0.46278    1.000
    C603     C        0.71811    0.28540    0.45032    1.000
    C604     C        0.87095    0.83871    0.68317    1.000
    C605     C        0.86771    0.81352    0.65468    1.000
    C606     C        0.90023    0.83064    0.70610    1.000
    C607     C        0.91894    0.79931    0.69463    1.000
    S608     S        0.90049    0.77980    0.65550    1.000
    H609     H        0.90730    0.84630    0.73029    1.000
    O610     O        0.74747    0.79816    0.96402    1.000
    O611     O        0.79526    0.74450    0.96278    1.000
    C612     C        0.71811    0.78540    0.95032    1.000
    C613     C        0.62905    0.33871    0.31683    1.000
    C614     C        0.63229    0.31352    0.34532    1.000
    C615     C        0.59977    0.33064    0.29390    1.000
    C616     C        0.58106    0.29931    0.30537    1.000
    S617     S        0.59951    0.27980    0.34450    1.000
    H618     H        0.59270    0.34630    0.26971    1.000
    O619     O        0.75253    0.29816    0.03598    1.000
    O620     O        0.70474    0.24450    0.03722    1.000
    C621     C        0.78189    0.28540    0.04968    1.000
    C622     C        0.62905    0.83871    0.81683    1.000
    C623     C        0.63229    0.81352    0.84532    1.000
    C624     C        0.59977    0.83064    0.79390    1.000
    C625     C        0.58106    0.79931    0.80537    1.000
    S626     S        0.59951    0.77980    0.84450    1.000
    H627     H        0.59270    0.84630    0.76971    1.000
    O628     O        0.75253    0.79816    0.53598    1.000
    O629     O        0.70474    0.74450    0.53722    1.000
    C630     C        0.78189    0.78540    0.54968    1.000
    C631     C        0.12905    0.33871    0.81683    1.000
    C632     C        0.13229    0.31352    0.84532    1.000
    C633     C        0.09977    0.33064    0.79390    1.000
    C634     C        0.08106    0.29931    0.80537    1.000
    S635     S        0.09951    0.27980    0.84450    1.000
    H636     H        0.09270    0.34630    0.76971    1.000
    O637     O        0.25253    0.29816    0.53598    1.000
    O638     O        0.20474    0.24450    0.53722    1.000
    C639     C        0.28189    0.28540    0.54968    1.000
    C640     C        0.12905    0.83871    0.31683    1.000
    C641     C        0.13229    0.81352    0.34532    1.000
    C642     C        0.09977    0.83064    0.29390    1.000
    C643     C        0.08106    0.79931    0.30537    1.000
    S644     S        0.09951    0.77980    0.34450    1.000
    H645     H        0.09270    0.84630    0.26971    1.000
    O646     O        0.25253    0.79816    0.03598    1.000
    O647     O        0.20474    0.74450    0.03722    1.000
    C648     C        0.28189    0.78540    0.04968    1.000
    C649     C        0.62905    0.66129    0.68317    1.000
    C650     C        0.63229    0.68648    0.65468    1.000
    C651     C        0.59977    0.66936    0.70610    1.000
    C652     C        0.58106    0.70069    0.69463    1.000
    S653     S        0.59951    0.72020    0.65550    1.000
    H654     H        0.59270    0.65370    0.73029    1.000
    O655     O        0.75253    0.70184    0.96402    1.000
    O656     O        0.70474    0.75550    0.96278    1.000
    C657     C        0.78189    0.71460    0.95032    1.000
    C658     C        0.62905    0.16129    0.18317    1.000
    C659     C        0.63229    0.18648    0.15468    1.000
    C660     C        0.59977    0.16936    0.20610    1.000
    C661     C        0.58106    0.20069    0.19463    1.000
    S662     S        0.59951    0.22020    0.15550    1.000
    H663     H        0.59270    0.15370    0.23029    1.000
    O664     O        0.75253    0.20184    0.46402    1.000
    O665     O        0.70474    0.25550    0.46278    1.000
    C666     C        0.78189    0.21460    0.45032    1.000
    C667     C        0.12905    0.66129    0.18317    1.000
    C668     C        0.13229    0.68648    0.15468    1.000
    C669     C        0.09977    0.66936    0.20610    1.000
    C670     C        0.08106    0.70069    0.19463    1.000
    S671     S        0.09951    0.72020    0.15550    1.000
    H672     H        0.09270    0.65370    0.23029    1.000
    O673     O        0.25253    0.70184    0.46402    1.000
    O674     O        0.20474    0.75550    0.46278    1.000
    C675     C        0.28189    0.71460    0.45032    1.000
    C676     C        0.12905    0.16129    0.68317    1.000
    C677     C        0.13229    0.18648    0.65468    1.000
    C678     C        0.09977    0.16936    0.70610    1.000
    C679     C        0.08106    0.20069    0.69463    1.000
    S680     S        0.09951    0.22020    0.65550    1.000
    H681     H        0.09270    0.15370    0.73029    1.000
    O682     O        0.25253    0.20184    0.96402    1.000
    O683     O        0.20474    0.25550    0.96278    1.000
    C684     C        0.28189    0.21460    0.95032    1.000
    C685     C        0.37095    0.66129    0.31683    1.000
    C686     C        0.36771    0.68648    0.34532    1.000
    C687     C        0.40023    0.66936    0.29390    1.000
    C688     C        0.41894    0.70069    0.30537    1.000
    S689     S        0.40049    0.72020    0.34450    1.000
    H690     H        0.40730    0.65370    0.26971    1.000
    O691     O        0.24747    0.70184    0.03598    1.000
    O692     O        0.29526    0.75550    0.03722    1.000
    C693     C        0.21811    0.71460    0.04968    1.000
    C694     C        0.37095    0.16129    0.81683    1.000
    C695     C        0.36771    0.18648    0.84532    1.000
    C696     C        0.40023    0.16936    0.79390    1.000
    C697     C        0.41894    0.20069    0.80537    1.000
    S698     S        0.40049    0.22020    0.84450    1.000
    H699     H        0.40730    0.15370    0.76971    1.000
    O700     O        0.24747    0.20184    0.53598    1.000
    O701     O        0.29526    0.25550    0.53722    1.000
    C702     C        0.21811    0.21460    0.54968    1.000
    C703     C        0.87095    0.66129    0.81683    1.000
    C704     C        0.86771    0.68648    0.84532    1.000
    C705     C        0.90023    0.66936    0.79390    1.000
    C706     C        0.91894    0.70069    0.80537    1.000
    S707     S        0.90049    0.72020    0.84450    1.000
    H708     H        0.90730    0.65370    0.76971    1.000
    O709     O        0.74747    0.70184    0.53598    1.000
    O710     O        0.79526    0.75550    0.53722    1.000
    C711     C        0.71811    0.71460    0.54968    1.000
    C712     C        0.87095    0.16129    0.31683    1.000
    C713     C        0.86771    0.18648    0.34532    1.000
    C714     C        0.90023    0.16936    0.29390    1.000
    C715     C        0.91894    0.20069    0.30537    1.000
    S716     S        0.90049    0.22020    0.34450    1.000
    H717     H        0.90730    0.15370    0.26971    1.000
    O718     O        0.74747    0.20184    0.03598    1.000
    O719     O        0.79526    0.25550    0.03722    1.000
    C720     C        0.71811    0.21460    0.04968    1.000
    C721     C        0.33871    0.31683    0.62905    1.000
    C722     C        0.31352    0.34532    0.63229    1.000
    C723     C        0.33064    0.29390    0.59977    1.000
    C724     C        0.29931    0.30537    0.58106    1.000
    S725     S        0.27980    0.34450    0.59951    1.000
    H726     H        0.34630    0.26971    0.59270    1.000
    O727     O        0.29816    0.03598    0.75253    1.000
    O728     O        0.24450    0.03722    0.70474    1.000
    C729     C        0.28540    0.04968    0.78189    1.000
    C730     C        0.33871    0.81683    0.12905    1.000
    C731     C        0.31352    0.84532    0.13229    1.000
    C732     C        0.33064    0.79390    0.09977    1.000
    C733     C        0.29931    0.80537    0.08106    1.000
    S734     S        0.27980    0.84450    0.09951    1.000
    H735     H        0.34630    0.76971    0.09270    1.000
    O736     O        0.29816    0.53598    0.25253    1.000
    O737     O        0.24450    0.53722    0.20474    1.000
    C738     C        0.28540    0.54968    0.28189    1.000
    C739     C        0.83871    0.31683    0.12905    1.000
    C740     C        0.81352    0.34532    0.13229    1.000
    C741     C        0.83064    0.29390    0.09977    1.000
    C742     C        0.79931    0.30537    0.08106    1.000
    S743     S        0.77980    0.34450    0.09951    1.000
    H744     H        0.84630    0.26971    0.09270    1.000
    O745     O        0.79816    0.03598    0.25253    1.000
    O746     O        0.74450    0.03722    0.20474    1.000
    C747     C        0.78540    0.04968    0.28189    1.000
    C748     C        0.83871    0.81683    0.62905    1.000
    C749     C        0.81352    0.84532    0.63229    1.000
    C750     C        0.83064    0.79390    0.59977    1.000
    C751     C        0.79931    0.80537    0.58106    1.000
    S752     S        0.77980    0.84450    0.59951    1.000
    H753     H        0.84630    0.76971    0.59270    1.000
    O754     O        0.79816    0.53598    0.75253    1.000
    O755     O        0.74450    0.53722    0.70474    1.000
    C756     C        0.78540    0.54968    0.78189    1.000
    C757     C        0.33871    0.68317    0.37095    1.000
    C758     C        0.31352    0.65468    0.36771    1.000
    C759     C        0.33064    0.70610    0.40023    1.000
    C760     C        0.29931    0.69463    0.41894    1.000
    S761     S        0.27980    0.65550    0.40049    1.000
    H762     H        0.34630    0.73029    0.40730    1.000
    O763     O        0.29816    0.96402    0.24747    1.000
    O764     O        0.24450    0.96278    0.29526    1.000
    C765     C        0.28540    0.95032    0.21811    1.000
    C766     C        0.33871    0.18317    0.87095    1.000
    C767     C        0.31352    0.15468    0.86771    1.000
    C768     C        0.33064    0.20610    0.90023    1.000
    C769     C        0.29931    0.19463    0.91894    1.000
    S770     S        0.27980    0.15550    0.90049    1.000
    H771     H        0.34630    0.23029    0.90730    1.000
    O772     O        0.29816    0.46402    0.74747    1.000
    O773     O        0.24450    0.46278    0.79526    1.000
    C774     C        0.28540    0.45032    0.71811    1.000
    C775     C        0.83871    0.68317    0.87095    1.000
    C776     C        0.81352    0.65468    0.86771    1.000
    C777     C        0.83064    0.70610    0.90023    1.000
    C778     C        0.79931    0.69463    0.91894    1.000
    S779     S        0.77980    0.65550    0.90049    1.000
    H780     H        0.84630    0.73029    0.90730    1.000
    O781     O        0.79816    0.96402    0.74747    1.000
    O782     O        0.74450    0.96278    0.79526    1.000
    C783     C        0.78540    0.95032    0.71811    1.000
    C784     C        0.83871    0.18317    0.37095    1.000
    C785     C        0.81352    0.15468    0.36771    1.000
    C786     C        0.83064    0.20610    0.40023    1.000
    C787     C        0.79931    0.19463    0.41894    1.000
    S788     S        0.77980    0.15550    0.40049    1.000
    H789     H        0.84630    0.23029    0.40730    1.000
    O790     O        0.79816    0.46402    0.24747    1.000
    O791     O        0.74450    0.46278    0.29526    1.000
    C792     C        0.78540    0.45032    0.21811    1.000
    C793     C        0.66129    0.31683    0.37095    1.000
    C794     C        0.68648    0.34532    0.36771    1.000
    C795     C        0.66936    0.29390    0.40023    1.000
    C796     C        0.70069    0.30537    0.41894    1.000
    S797     S        0.72020    0.34450    0.40049    1.000
    H798     H        0.65370    0.26971    0.40730    1.000
    O799     O        0.70184    0.03598    0.24747    1.000
    O800     O        0.75550    0.03722    0.29526    1.000
    C801     C        0.71460    0.04968    0.21811    1.000
    C802     C        0.66129    0.81683    0.87095    1.000
    C803     C        0.68648    0.84532    0.86771    1.000
    C804     C        0.66936    0.79390    0.90023    1.000
    C805     C        0.70069    0.80537    0.91894    1.000
    S806     S        0.72020    0.84450    0.90049    1.000
    H807     H        0.65370    0.76971    0.90730    1.000
    O808     O        0.70184    0.53598    0.74747    1.000
    O809     O        0.75550    0.53722    0.79526    1.000
    C810     C        0.71460    0.54968    0.71811    1.000
    C811     C        0.16129    0.31683    0.87095    1.000
    C812     C        0.18648    0.34532    0.86771    1.000
    C813     C        0.16936    0.29390    0.90023    1.000
    C814     C        0.20069    0.30537    0.91894    1.000
    S815     S        0.22020    0.34450    0.90049    1.000
    H816     H        0.15370    0.26971    0.90730    1.000
    O817     O        0.20184    0.03598    0.74747    1.000
    O818     O        0.25550    0.03722    0.79526    1.000
    C819     C        0.21460    0.04968    0.71811    1.000
    C820     C        0.16129    0.81683    0.37095    1.000
    C821     C        0.18648    0.84532    0.36771    1.000
    C822     C        0.16936    0.79390    0.40023    1.000
    C823     C        0.20069    0.80537    0.41894    1.000
    S824     S        0.22020    0.84450    0.40049    1.000
    H825     H        0.15370    0.76971    0.40730    1.000
    O826     O        0.20184    0.53598    0.24747    1.000
    O827     O        0.25550    0.53722    0.29526    1.000
    C828     C        0.21460    0.54968    0.21811    1.000
    C829     C        0.66129    0.68317    0.62905    1.000
    C830     C        0.68648    0.65468    0.63229    1.000
    C831     C        0.66936    0.70610    0.59977    1.000
    C832     C        0.70069    0.69463    0.58106    1.000
    S833     S        0.72020    0.65550    0.59951    1.000
    H834     H        0.65370    0.73029    0.59270    1.000
    O835     O        0.70184    0.96402    0.75253    1.000
    O836     O        0.75550    0.96278    0.70474    1.000
    C837     C        0.71460    0.95032    0.78189    1.000
    C838     C        0.66129    0.18317    0.12905    1.000
    C839     C        0.68648    0.15468    0.13229    1.000
    C840     C        0.66936    0.20610    0.09977    1.000
    C841     C        0.70069    0.19463    0.08106    1.000
    S842     S        0.72020    0.15550    0.09951    1.000
    H843     H        0.65370    0.23029    0.09270    1.000
    O844     O        0.70184    0.46402    0.25253    1.000
    O845     O        0.75550    0.46278    0.20474    1.000
    C846     C        0.71460    0.45032    0.28189    1.000
    C847     C        0.16129    0.68317    0.12905    1.000
    C848     C        0.18648    0.65468    0.13229    1.000
    C849     C        0.16936    0.70610    0.09977    1.000
    C850     C        0.20069    0.69463    0.08106    1.000
    S851     S        0.22020    0.65550    0.09951    1.000
    H852     H        0.15370    0.73029    0.09270    1.000
    O853     O        0.20184    0.96402    0.25253    1.000
    O854     O        0.25550    0.96278    0.20474    1.000
    C855     C        0.21460    0.95032    0.28189    1.000
    C856     C        0.16129    0.18317    0.62905    1.000
    C857     C        0.18648    0.15468    0.63229    1.000
    C858     C        0.16936    0.20610    0.59977    1.000
    C859     C        0.20069    0.19463    0.58106    1.000
    S860     S        0.22020    0.15550    0.59951    1.000
    H861     H        0.15370    0.23029    0.59270    1.000
    O862     O        0.20184    0.46402    0.75253    1.000
    O863     O        0.25550    0.46278    0.70474    1.000
    C864     C        0.21460    0.45032    0.78189    1.000
    Cu865    Cu       0.27537    0.00000    0.27537    1.000
    Cu866    Cu       0.27537    0.50000    0.77537    1.000
    Cu867    Cu       0.77537    0.00000    0.77537    1.000
    Cu868    Cu       0.77537    0.50000    0.27537    1.000
    Cu869    Cu       0.72463    0.00000    0.27537    1.000
    Cu870    Cu       0.72463    0.50000    0.77537    1.000
    Cu871    Cu       0.22463    0.00000    0.77537    1.000
    Cu872    Cu       0.22463    0.50000    0.27537    1.000
    Cu873    Cu       0.72463    0.00000    0.72463    1.000
    Cu874    Cu       0.72463    0.50000    0.22463    1.000
    Cu875    Cu       0.22463    0.00000    0.22463    1.000
    Cu876    Cu       0.22463    0.50000    0.72463    1.000
    Cu877    Cu       0.27537    0.00000    0.72463    1.000
    Cu878    Cu       0.27537    0.50000    0.22463    1.000
    Cu879    Cu       0.77537    0.00000    0.22463    1.000
    Cu880    Cu       0.77537    0.50000    0.72463    1.000
    Cu881    Cu       0.27537    0.27537    0.00000    1.000
    Cu882    Cu       0.27537    0.77537    0.50000    1.000
    Cu883    Cu       0.77537    0.27537    0.50000    1.000
    Cu884    Cu       0.77537    0.77537    0.00000    1.000
    Cu885    Cu       0.27537    0.72463    0.00000    1.000
    Cu886    Cu       0.27537    0.22463    0.50000    1.000
    Cu887    Cu       0.77537    0.72463    0.50000    1.000
    Cu888    Cu       0.77537    0.22463    0.00000    1.000
    Cu889    Cu       0.72463    0.72463    0.00000    1.000
    Cu890    Cu       0.72463    0.22463    0.50000    1.000
    Cu891    Cu       0.22463    0.72463    0.50000    1.000
    Cu892    Cu       0.22463    0.22463    0.00000    1.000
    Cu893    Cu       0.72463    0.27537    0.00000    1.000
    Cu894    Cu       0.72463    0.77537    0.50000    1.000
    Cu895    Cu       0.22463    0.27537    0.50000    1.000
    Cu896    Cu       0.22463    0.77537    0.00000    1.000
    Cu897    Cu       0.00000    0.27537    0.27537    1.000
    Cu898    Cu       0.00000    0.77537    0.77537    1.000
    Cu899    Cu       0.50000    0.27537    0.77537    1.000
    Cu900    Cu       0.50000    0.77537    0.27537    1.000
    Cu901    Cu       0.00000    0.27537    0.72463    1.000
    Cu902    Cu       0.00000    0.77537    0.22463    1.000
    Cu903    Cu       0.50000    0.27537    0.22463    1.000
    Cu904    Cu       0.50000    0.77537    0.72463    1.000
    Cu905    Cu       0.00000    0.72463    0.72463    1.000
    Cu906    Cu       0.00000    0.22463    0.22463    1.000
    Cu907    Cu       0.50000    0.72463    0.22463    1.000
    Cu908    Cu       0.50000    0.22463    0.72463    1.000
    Cu909    Cu       0.00000    0.72463    0.27537    1.000
    Cu910    Cu       0.00000    0.22463    0.77537    1.000
    Cu911    Cu       0.50000    0.72463    0.77537    1.000
    Cu912    Cu       0.50000    0.22463    0.27537    1.000
