# CIF file generated by openbabel 3.1.0, see https://openbabel.org
data_I
_chemical_name_common 'image0'
_cell_length_a 7.6458
_cell_length_b 13.5219
_cell_length_c 16.3845
_cell_angle_alpha 90
_cell_angle_beta 90
_cell_angle_gamma 90
_space_group_name_H-M_alt 'P 1'
_space_group_name_Hall 'P 1'
loop_
    _symmetry_equiv_pos_as_xyz
    x,y,z
loop_
    _atom_site_label
    _atom_site_type_symbol
    _atom_site_fract_x
    _atom_site_fract_y
    _atom_site_fract_z
    _atom_site_occupancy
    Cu1      Cu       0.12656    0.78522    0.09884    1.000
    N1       N        0.96030    0.78238    0.00533    1.000
    C1       C        0.86890    0.78622    0.94969    1.000
    N2       N        0.18110    0.92266    0.12754    1.000
    C2       C        0.20550    0.00484    0.14329    1.000
    Cu2      Cu       0.80189    0.64927    0.34101    1.000
    N3       N        0.95380    0.68322    0.24806    1.000
    C3       C        0.04570    0.70325    0.19483    1.000
    Cu3      Cu       0.37344    0.21478    0.59884    1.000
    N4       N        0.53970    0.21762    0.50533    1.000
    C4       C        0.63110    0.21378    0.44969    1.000
    N5       N        0.31890    0.07734    0.62754    1.000
    C5       C        0.29450    0.99516    0.64329    1.000
    Cu4      Cu       0.69811    0.35073    0.84101    1.000
    N6       N        0.54620    0.31678    0.74806    1.000
    C6       C        0.45430    0.29675    0.69483    1.000
    Cu5      Cu       0.87344    0.28522    0.40116    1.000
    N7       N        0.03970    0.28238    0.49467    1.000
    C7       C        0.13110    0.28622    0.55031    1.000
    N8       N        0.81890    0.42266    0.37246    1.000
    C8       C        0.79450    0.50484    0.35671    1.000
    Cu6      Cu       0.19811    0.14927    0.15899    1.000
    N9       N        0.04620    0.18322    0.25194    1.000
    C9       C        0.95430    0.20325    0.30517    1.000
    Cu7      Cu       0.62656    0.71478    0.90116    1.000
    N10      N        0.46030    0.71762    0.99467    1.000
    C10      C        0.36890    0.71378    0.05031    1.000
    N11      N        0.68110    0.57734    0.87246    1.000
    C11      C        0.70550    0.49516    0.85671    1.000
    Cu8      Cu       0.30189    0.85073    0.65899    1.000
    N12      N        0.45380    0.81678    0.75194    1.000
    C12      C        0.54570    0.79675    0.80517    1.000
    Cu9      Cu       0.87344    0.21478    0.90116    1.000
    N13      N        0.03970    0.21762    0.99467    1.000
    C13      C        0.13110    0.21378    0.05031    1.000
    N14      N        0.81890    0.07734    0.87246    1.000
    C14      C        0.79450    0.99516    0.85671    1.000
    Cu10     Cu       0.19811    0.35073    0.65899    1.000
    N15      N        0.04620    0.31678    0.75194    1.000
    C15      C        0.95430    0.29675    0.80517    1.000
    Cu11     Cu       0.62656    0.78522    0.40116    1.000
    N16      N        0.46030    0.78238    0.49467    1.000
    C16      C        0.36890    0.78622    0.55031    1.000
    N17      N        0.68110    0.92266    0.37246    1.000
    C17      C        0.70550    0.00484    0.35671    1.000
    Cu12     Cu       0.30189    0.64927    0.15899    1.000
    N18      N        0.45380    0.68322    0.25194    1.000
    C18      C        0.54570    0.70325    0.30517    1.000
    Cu13     Cu       0.12656    0.71478    0.59884    1.000
    N19      N        0.96030    0.71762    0.50533    1.000
    C19      C        0.86890    0.71378    0.44969    1.000
    N20      N        0.18110    0.57734    0.62754    1.000
    C20      C        0.20550    0.49516    0.64329    1.000
    Cu14     Cu       0.80189    0.85073    0.84101    1.000
    N21      N        0.95380    0.81678    0.74806    1.000
    C21      C        0.04570    0.79675    0.69483    1.000
    Cu15     Cu       0.37344    0.28522    0.09884    1.000
    N22      N        0.53970    0.28238    0.00533    1.000
    C22      C        0.63110    0.28622    0.94969    1.000
    N23      N        0.31890    0.42266    0.12754    1.000
    C23      C        0.29450    0.50484    0.14329    1.000
    Cu16     Cu       0.69811    0.14927    0.34101    1.000
    N24      N        0.54620    0.18322    0.24806    1.000
    C24      C        0.45430    0.20325    0.19483    1.000
