# CIF file generated by openbabel 3.1.0, see https://openbabel.org
data_I
_chemical_name_common 'TUMGOX_clean'
_cell_length_a 8.627
_cell_length_b 9.65
_cell_length_c 13.218
_cell_angle_alpha 90
_cell_angle_beta 90
_cell_angle_gamma 95.93
_space_group_name_H-M_alt 'P 1'
_space_group_name_Hall 'P 1'
loop_
    _symmetry_equiv_pos_as_xyz
    x,y,z
loop_
    _atom_site_label
    _atom_site_type_symbol
    _atom_site_fract_x
    _atom_site_fract_y
    _atom_site_fract_z
    _atom_site_occupancy
    Ce1      Ce       0.45516    0.00433    0.76576    1.000
    Ce2      Ce       0.04484    0.49567    0.26576    1.000
    Ce3      Ce       0.54484    0.99567    0.23424    1.000
    Ce4      Ce       0.95516    0.50433    0.73424    1.000
    C1       C        0.40990    0.37430    0.97460    1.000
    C2       C        0.52750    0.37660    0.04860    1.000
    C3       C        0.38130    0.49950    0.92740    1.000
    C4       C        0.30670    0.24040    0.94860    1.000
    C5       C        0.54450    0.24870    0.10990    1.000
    C6       C        0.24420    0.50430    0.85810    1.000
    C7       C        0.09010    0.12570    0.47460    1.000
    C8       C        0.97250    0.12340    0.54860    1.000
    C9       C        0.11870    0.00050    0.42740    1.000
    C10      C        0.19330    0.25960    0.44860    1.000
    C11      C        0.95550    0.25130    0.60990    1.000
    C12      C        0.25580    0.99570    0.35810    1.000
    C13      C        0.59010    0.62570    0.02540    1.000
    C14      C        0.47250    0.62340    0.95140    1.000
    C15      C        0.61870    0.50050    0.07260    1.000
    C16      C        0.69330    0.75960    0.05140    1.000
    C17      C        0.45550    0.75130    0.89010    1.000
    C18      C        0.75580    0.49570    0.14190    1.000
    C19      C        0.90990    0.87430    0.52540    1.000
    C20      C        0.02750    0.87660    0.45140    1.000
    C21      C        0.88130    0.99950    0.57260    1.000
    C22      C        0.80670    0.74040    0.55140    1.000
    C23      C        0.04450    0.74870    0.39010    1.000
    C24      C        0.74420    0.00430    0.64190    1.000
    O1       O        0.35650    0.16220    0.88410    1.000
    O2       O        0.17780    0.22050    0.99180    1.000
    O3       O        0.55010    0.13330    0.06640    1.000
    O4       O        0.54760    0.25880    0.20410    1.000
    O5       O        0.21800    0.41590    0.78930    1.000
    O6       O        0.15230    0.59650    0.87500    1.000
    O7       O        0.14350    0.33780    0.38410    1.000
    O8       O        0.32220    0.27950    0.49180    1.000
    O9       O        0.94990    0.36670    0.56640    1.000
    O10      O        0.95240    0.24120    0.70410    1.000
    O11      O        0.28200    0.08410    0.28930    1.000
    O12      O        0.34770    0.90350    0.37500    1.000
    O13      O        0.64350    0.83780    0.11590    1.000
    O14      O        0.82220    0.77950    0.00820    1.000
    O15      O        0.44990    0.86670    0.93360    1.000
    O16      O        0.45240    0.74120    0.79590    1.000
    O17      O        0.78200    0.58410    0.21070    1.000
    O18      O        0.84770    0.40350    0.12500    1.000
    O19      O        0.85650    0.66220    0.61590    1.000
    O20      O        0.67780    0.72050    0.50820    1.000
    O21      O        0.05010    0.63330    0.43360    1.000
    O22      O        0.04760    0.75880    0.29590    1.000
    O23      O        0.71800    0.91590    0.71070    1.000
    O24      O        0.65230    0.09650    0.62500    1.000
