# CIF file generated by openbabel 3.1.0, see https://openbabel.org
data_I
_chemical_name_common 'GUJGEY_clean'
_cell_length_a 13.171
_cell_length_b 13.5661
_cell_length_c 15.1472
_cell_angle_alpha 108.55
_cell_angle_beta 101.691
_cell_angle_gamma 111.933
_space_group_name_H-M_alt 'P 1'
_space_group_name_Hall 'P 1'
loop_
    _symmetry_equiv_pos_as_xyz
    x,y,z
loop_
    _atom_site_label
    _atom_site_type_symbol
    _atom_site_fract_x
    _atom_site_fract_y
    _atom_site_fract_z
    _atom_site_occupancy
    Nd1      Nd       0.18665    0.65034    0.92883    1.000
    Nd2      Nd       0.40056    0.89534    0.84769    1.000
    Nd3      Nd       0.81335    0.34966    0.07117    1.000
    Nd4      Nd       0.59944    0.10466    0.15231    1.000
    P1       P        0.11150    0.58872    0.12938    1.000
    P2       P        0.68099    0.17503    0.42694    1.000
    P3       P        0.28424    0.92108    0.06059    1.000
    P4       P        0.51382    0.82560    0.05709    1.000
    P5       P        0.08244    0.77349    0.76750    1.000
    P6       P        0.88850    0.41128    0.87062    1.000
    P7       P        0.31901    0.82497    0.57306    1.000
    P8       P        0.71576    0.07892    0.93941    1.000
    P9       P        0.48618    0.17440    0.94291    1.000
    P10      P        0.91756    0.22651    0.23250    1.000
    H1       H        0.33870    0.75860    0.37480    1.000
    H2       H        0.53390    0.91640    0.27180    1.000
    H3       H        0.09140    0.94230    0.94270    1.000
    H4       H        0.43270    0.58400    0.96460    1.000
    H5       H        0.45270    0.56710    0.63690    1.000
    H6       H        0.08380    0.66330    0.56740    1.000
    H7       H        0.39860    0.37420    0.53110    1.000
    H8       H        0.10160    0.72840    0.11670    1.000
    H9       H        0.26260    0.22090    0.54400    1.000
    H10      H        0.17590    0.25440    0.66140    1.000
    H11      H        0.20490    0.56310    0.26070    1.000
    H12      H        0.15030    0.64490    0.29870    1.000
    H13      H        0.30710    0.82060    0.21950    1.000
    H14      H        0.25990    0.85560    0.30550    1.000
    H15      H        0.45060    0.96960    0.42340    1.000
    H16      H        0.44140    0.01220    0.33860    1.000
    H17      H        0.58730    0.79720    0.32090    1.000
    H18      H        0.54390    0.82630    0.41030    1.000
    H19      H        0.40440    0.64000    0.28310    1.000
    H20      H        0.39260    0.69450    0.20650    1.000
    H21      H        0.67550    0.02230    0.46940    1.000
    H22      H        0.71730    0.01360    0.37890    1.000
    H23      H        0.28440    0.08580    0.04580    1.000
    H24      H        0.24850    0.07570    0.13580    1.000
    H25      H        0.02990    0.86120    0.04520    1.000
    H26      H        0.04940    0.98390    0.11880    1.000
    H27      H        0.12260    0.15420    0.07680    1.000
    H28      H        0.15030    0.13670    0.97870    1.000
    H29      H        0.58190    0.73120    0.94180    1.000
    H30      H        0.66010    0.76600    0.05090    1.000
    H31      H        0.51560    0.65460    0.13480    1.000
    H32      H        0.61690    0.62470    0.11990    1.000
    H33      H        0.62210    0.54680    0.95150    1.000
    H34      H        0.52330    0.52610    0.85920    1.000
    H35      H        0.96570    0.74000    0.61230    1.000
    H36      H        0.90300    0.63510    0.63760    1.000
    H37      H        0.85120    0.49270    0.46890    1.000
    H38      H        0.91060    0.59720    0.44180    1.000
    H39      H        0.10160    0.57440    0.67050    1.000
    H40      H        0.96930    0.47900    0.61060    1.000
    H41      H        0.66130    0.24140    0.62520    1.000
    H42      H        0.46610    0.08360    0.72820    1.000
    H43      H        0.90860    0.05770    0.05730    1.000
    H44      H        0.56730    0.41600    0.03540    1.000
    H45      H        0.54730    0.43290    0.36310    1.000
    H46      H        0.91620    0.33670    0.43260    1.000
    H47      H        0.60140    0.62580    0.46890    1.000
    H48      H        0.89840    0.27160    0.88330    1.000
    H49      H        0.73740    0.77910    0.45600    1.000
    H50      H        0.82410    0.74560    0.33860    1.000
    H51      H        0.79510    0.43690    0.73930    1.000
    H52      H        0.84970    0.35510    0.70130    1.000
    H53      H        0.69290    0.17940    0.78050    1.000
    H54      H        0.74010    0.14440    0.69450    1.000
    H55      H        0.54940    0.03040    0.57660    1.000
    H56      H        0.55860    0.98780    0.66140    1.000
    H57      H        0.41270    0.20280    0.67910    1.000
    H58      H        0.45610    0.17370    0.58970    1.000
    H59      H        0.59560    0.36000    0.71690    1.000
    H60      H        0.60740    0.30550    0.79350    1.000
    H61      H        0.32450    0.97770    0.53060    1.000
    H62      H        0.28270    0.98640    0.62110    1.000
    H63      H        0.71560    0.91420    0.95420    1.000
    H64      H        0.75150    0.92430    0.86420    1.000
    H65      H        0.97010    0.13880    0.95480    1.000
    H66      H        0.95060    0.01610    0.88120    1.000
    H67      H        0.87740    0.84580    0.92320    1.000
    H68      H        0.84970    0.86330    0.02130    1.000
    H69      H        0.41810    0.26880    0.05820    1.000
    H70      H        0.33990    0.23400    0.94910    1.000
    H71      H        0.48440    0.34540    0.86520    1.000
    H72      H        0.38310    0.37530    0.88010    1.000
    H73      H        0.37790    0.45320    0.04850    1.000
    H74      H        0.47670    0.47390    0.14080    1.000
    H75      H        0.03430    0.26000    0.38770    1.000
    H76      H        0.09700    0.36490    0.36240    1.000
    H77      H        0.14880    0.50730    0.53110    1.000
    H78      H        0.08940    0.40280    0.55820    1.000
    H79      H        0.89840    0.42560    0.32950    1.000
    H80      H        0.03070    0.52100    0.38940    1.000
    C1       C        0.20660    0.45750    0.79510    1.000
    C2       C        0.37520    0.65330    0.77470    1.000
    C3       C        0.26200    0.43260    0.72010    1.000
    C4       C        0.34430    0.52700    0.71200    1.000
    C5       C        0.39640    0.50460    0.64170    1.000
    C6       C        0.36440    0.38890    0.57850    1.000
    C7       C        0.28350    0.29790    0.58640    1.000
    C8       C        0.23120    0.31770    0.65680    1.000
    C9       C        0.19630    0.63040    0.25850    1.000
    C10      C        0.32130    0.83910    0.28960    1.000
    C11      C        0.43990    0.94720    0.35340    1.000
    C12      C        0.52830    0.81450    0.34130    1.000
    C13      C        0.40760    0.70970    0.27620    1.000
    C14      C        0.65960    0.02580    0.40540    1.000
    C15      C        0.23430    0.03130    0.06620    1.000
    C16      C        0.02650    0.93250    0.04890    1.000
    C17      C        0.09820    0.09850    0.00800    1.000
    C18      C        0.57980    0.73230    0.00580    1.000
    C19      C        0.53410    0.60080    0.08990    1.000
    C20      C        0.53930    0.52360    0.92360    1.000
    C21      C        0.97790    0.68680    0.63820    1.000
    C22      C        0.92430    0.54370    0.46640    1.000
    C23      C        0.03970    0.53020    0.60480    1.000
    C24      C        0.79340    0.54250    0.20490    1.000
    C25      C        0.62480    0.34670    0.22530    1.000
    C26      C        0.73800    0.56740    0.27990    1.000
    C27      C        0.65570    0.47300    0.28800    1.000
    C28      C        0.60360    0.49540    0.35830    1.000
    C29      C        0.63560    0.61110    0.42150    1.000
    C30      C        0.71650    0.70210    0.41360    1.000
    C31      C        0.76880    0.68230    0.34320    1.000
    C32      C        0.80370    0.36960    0.74150    1.000
    C33      C        0.67870    0.16090    0.71040    1.000
    C34      C        0.56010    0.05280    0.64660    1.000
    C35      C        0.47170    0.18550    0.65870    1.000
    C36      C        0.59240    0.29030    0.72380    1.000
    C37      C        0.34040    0.97420    0.59460    1.000
    C38      C        0.76570    0.96870    0.93380    1.000
    C39      C        0.97350    0.06750    0.95110    1.000
    C40      C        0.90180    0.90150    0.99200    1.000
    C41      C        0.42020    0.26770    0.99420    1.000
    C42      C        0.46590    0.39920    0.91010    1.000
    C43      C        0.46070    0.47640    0.07640    1.000
    C44      C        0.02210    0.31320    0.36180    1.000
    C45      C        0.07570    0.45630    0.53360    1.000
    C46      C        0.96030    0.46980    0.39520    1.000
    N1       N        0.31690    0.73590    0.30760    1.000
    N2       N        0.53930    0.92600    0.33520    1.000
    N3       N        0.11010    0.99260    0.00700    1.000
    N4       N        0.51070    0.60720    0.99190    1.000
    N5       N        0.01640    0.61390    0.57030    1.000
    N6       N        0.68310    0.26410    0.69240    1.000
    N7       N        0.46070    0.07400    0.66480    1.000
    N8       N        0.88990    0.00740    0.99300    1.000
    N9       N        0.48930    0.39280    0.00810    1.000
    N10      N        0.98360    0.38610    0.42970    1.000
    O1       O        0.10400    0.44290    0.76720    1.000
    O2       O        0.26840    0.50300    0.88750    1.000
    O3       O        0.30120    0.67400    0.80930    1.000
    O4       O        0.47060    0.73480    0.78840    1.000
    O5       O        0.19100    0.59710    0.07010    1.000
    O6       O        0.01180    0.46880    0.09730    1.000
    O7       O        0.06540    0.68250    0.13720    1.000
    O8       O        0.62010    0.20660    0.49990    1.000
    O9       O        0.62240    0.16510    0.32590    1.000
    O10      O        0.81340    0.25190    0.47420    1.000
    O11      O        0.28920    0.86790    0.95720    1.000
    O12      O        0.19250    0.81790    0.06910    1.000
    O13      O        0.40170    0.99260    0.14520    1.000
    O14      O        0.06840    0.68700    0.81330    1.000
    O15      O        0.04250    0.86290    0.81390    1.000
    O16      O        0.19970    0.82890    0.75820    1.000
    O17      O        0.52430    0.90360    0.00210    1.000
    O18      O        0.58850    0.90740    0.16790    1.000
    O19      O        0.39110    0.73770    0.03770    1.000
    O20      O        0.89600    0.55710    0.23280    1.000
    O21      O        0.73160    0.49700    0.11250    1.000
    O22      O        0.69880    0.32600    0.19070    1.000
    O23      O        0.52940    0.26520    0.21160    1.000
    O24      O        0.80900    0.40290    0.92990    1.000
    O25      O        0.98820    0.53120    0.90270    1.000
    O26      O        0.93460    0.31750    0.86280    1.000
    O27      O        0.37990    0.79340    0.50010    1.000
    O28      O        0.37760    0.83490    0.67410    1.000
    O29      O        0.18660    0.74810    0.52580    1.000
    O30      O        0.71080    0.13210    0.04280    1.000
    O31      O        0.80750    0.18210    0.93090    1.000
    O32      O        0.59830    0.00740    0.85480    1.000
    O33      O        0.93160    0.31300    0.18670    1.000
    O34      O        0.95750    0.13710    0.18610    1.000
    O35      O        0.80030    0.17110    0.24180    1.000
    O36      O        0.47570    0.09640    0.99790    1.000
    O37      O        0.41150    0.09260    0.83210    1.000
    O38      O        0.60890    0.26230    0.96230    1.000
