# CIF file generated by openbabel 3.1.0, see https://openbabel.org
data_I
_chemical_name_common 'GEDQOX_clean'
_cell_length_a 13.2796
_cell_length_b 14.9992
_cell_length_c 16.1213
_cell_angle_alpha 117.723
_cell_angle_beta 99.1245
_cell_angle_gamma 90
_space_group_name_H-M_alt 'P 1'
_space_group_name_Hall 'P 1'
loop_
    _symmetry_equiv_pos_as_xyz
    x,y,z
loop_
    _atom_site_label
    _atom_site_type_symbol
    _atom_site_fract_x
    _atom_site_fract_y
    _atom_site_fract_z
    _atom_site_occupancy
    Nd1      Nd       0.95766    0.96710    0.36284    1.000
    Nd2      Nd       0.54234    0.60426    0.63716    1.000
    Nd3      Nd       0.04234    0.03290    0.63716    1.000
    Nd4      Nd       0.45766    0.39574    0.36284    1.000
    H1       H        0.04620    0.63590    0.11440    1.000
    H2       H        0.09550    0.52640    0.97160    1.000
    H3       H        0.13740    0.75760    0.91900    1.000
    H4       H        0.09160    0.86730    0.06220    1.000
    H5       H        0.19400    0.60200    0.82400    1.000
    H6       H        0.27730    0.51350    0.71340    1.000
    H7       H        0.08380    0.28910    0.67960    1.000
    H8       H        0.20610    0.26560    0.45980    1.000
    H9       H        0.45380    0.52150    0.88560    1.000
    H10      H        0.40450    0.55480    0.02840    1.000
    H11      H        0.36260    0.83860    0.08100    1.000
    H12      H        0.40840    0.80510    0.93780    1.000
    H13      H        0.30600    0.77800    0.17600    1.000
    H14      H        0.22270    0.80010    0.28660    1.000
    H15      H        0.41620    0.60950    0.32040    1.000
    H16      H        0.29390    0.80580    0.54020    1.000
    H17      H        0.95380    0.36410    0.88560    1.000
    H18      H        0.90450    0.47360    0.02840    1.000
    H19      H        0.86260    0.24240    0.08100    1.000
    H20      H        0.90840    0.13270    0.93780    1.000
    H21      H        0.80600    0.39800    0.17600    1.000
    H22      H        0.72270    0.48650    0.28660    1.000
    H23      H        0.91620    0.71090    0.32040    1.000
    H24      H        0.79390    0.73440    0.54020    1.000
    H25      H        0.54620    0.47850    0.11440    1.000
    H26      H        0.59550    0.44520    0.97160    1.000
    H27      H        0.63740    0.16140    0.91900    1.000
    H28      H        0.59160    0.19490    0.06220    1.000
    H29      H        0.69400    0.22200    0.82400    1.000
    H30      H        0.77730    0.19990    0.71340    1.000
    H31      H        0.58380    0.39050    0.67960    1.000
    H32      H        0.70610    0.19420    0.45980    1.000
    C1       C        0.01940    0.83180    0.18960    1.000
    C2       C        0.05760    0.76100    0.10100    1.000
    C3       C        0.06290    0.66060    0.07460    1.000
    C4       C        0.09290    0.59470    0.98920    1.000
    C5       C        0.11900    0.63260    0.93020    1.000
    C6       C        0.11830    0.73260    0.95780    1.000
    C7       C        0.08970    0.79850    0.04320    1.000
    C8       C        0.14690    0.56450    0.83760    1.000
    C9       C        0.32770    0.43770    0.54200    1.000
    C10      C        0.25470    0.39550    0.57980    1.000
    C11      C        0.24090    0.45100    0.67440    1.000
    C12      C        0.17320    0.41340    0.71040    1.000
    C13      C        0.12430    0.31710    0.65420    1.000
    C14      C        0.13630    0.26290    0.56000    1.000
    C15      C        0.19980    0.30220    0.52340    1.000
    C16      C        0.08000    0.15980    0.49720    1.000
    C17      C        0.48060    0.64220    0.81040    1.000
    C18      C        0.44240    0.66000    0.89900    1.000
    C19      C        0.43710    0.58600    0.92540    1.000
    C20      C        0.40710    0.60550    0.01080    1.000
    C21      C        0.38100    0.70240    0.06980    1.000
    C22      C        0.38170    0.77480    0.04220    1.000
    C23      C        0.41030    0.75530    0.95680    1.000
    C24      C        0.35310    0.72690    0.16240    1.000
    C25      C        0.17230    0.89570    0.45800    1.000
    C26      C        0.24530    0.81570    0.42020    1.000
    C27      C        0.25910    0.77660    0.32560    1.000
    C28      C        0.32680    0.70300    0.28960    1.000
    C29      C        0.37570    0.66290    0.34580    1.000
    C30      C        0.36370    0.70290    0.44000    1.000
    C31      C        0.30020    0.77880    0.47660    1.000
    C32      C        0.42000    0.66260    0.50280    1.000
    C33      C        0.98060    0.16820    0.81040    1.000
    C34      C        0.94240    0.23900    0.89900    1.000
    C35      C        0.93710    0.33940    0.92540    1.000
    C36      C        0.90710    0.40530    0.01080    1.000
    C37      C        0.88100    0.36740    0.06980    1.000
    C38      C        0.88170    0.26740    0.04220    1.000
    C39      C        0.91030    0.20150    0.95680    1.000
    C40      C        0.85310    0.43550    0.16240    1.000
    C41      C        0.67230    0.56230    0.45800    1.000
    C42      C        0.74530    0.60450    0.42020    1.000
    C43      C        0.75910    0.54900    0.32560    1.000
    C44      C        0.82680    0.58660    0.28960    1.000
    C45      C        0.87570    0.68290    0.34580    1.000
    C46      C        0.86370    0.73710    0.44000    1.000
    C47      C        0.80020    0.69780    0.47660    1.000
    C48      C        0.92000    0.84020    0.50280    1.000
    C49      C        0.51940    0.35780    0.18960    1.000
    C50      C        0.55760    0.34000    0.10100    1.000
    C51      C        0.56290    0.41400    0.07460    1.000
    C52      C        0.59290    0.39450    0.98920    1.000
    C53      C        0.61900    0.29760    0.93020    1.000
    C54      C        0.61830    0.22520    0.95780    1.000
    C55      C        0.58970    0.24470    0.04320    1.000
    C56      C        0.64690    0.27310    0.83760    1.000
    C57      C        0.82770    0.10430    0.54200    1.000
    C58      C        0.75470    0.18430    0.57980    1.000
    C59      C        0.74090    0.22340    0.67440    1.000
    C60      C        0.67320    0.29700    0.71040    1.000
    C61      C        0.62430    0.33710    0.65420    1.000
    C62      C        0.63630    0.29710    0.56000    1.000
    C63      C        0.69980    0.22120    0.52340    1.000
    C64      C        0.58000    0.33740    0.49720    1.000
    N1       N        0.15270    0.47070    0.80500    1.000
    N2       N        0.34730    0.66570    0.19500    1.000
    N3       N        0.84730    0.52930    0.19500    1.000
    N4       N        0.65270    0.33430    0.80500    1.000
    O1       O        0.97530    0.79525    0.23190    1.000
    O2       O        0.03290    0.92385    0.21790    1.000
    O3       O        0.37220    0.52339    0.59758    1.000
    O4       O        0.33650    0.38375    0.45570    1.000
    O5       O        0.06620    0.12383    0.40926    1.000
    O6       O        0.04960    0.10963    0.53546    1.000
    O7       O        0.52470    0.56335    0.76810    1.000
    O8       O        0.46710    0.70595    0.78210    1.000
    O9       O        0.12780    0.92581    0.40242    1.000
    O10      O        0.16350    0.92805    0.54430    1.000
    O11      O        0.43380    0.71457    0.59074    1.000
    O12      O        0.45040    0.57417    0.46454    1.000
    O13      O        0.02470    0.20475    0.76810    1.000
    O14      O        0.96710    0.07615    0.78210    1.000
    O15      O        0.62780    0.47661    0.40242    1.000
    O16      O        0.66350    0.61625    0.54430    1.000
    O17      O        0.93380    0.87617    0.59074    1.000
    O18      O        0.95040    0.89037    0.46454    1.000
    O19      O        0.47530    0.43665    0.23190    1.000
    O20      O        0.53290    0.29405    0.21790    1.000
    O21      O        0.87220    0.07419    0.59758    1.000
    O22      O        0.83650    0.07195    0.45570    1.000
    O23      O        0.56620    0.28543    0.40926    1.000
    O24      O        0.54960    0.42583    0.53546    1.000
