# CIF file generated by openbabel 3.1.0, see https://openbabel.org
data_I
_chemical_name_common 'image0'
_cell_length_a 25.8728
_cell_length_b 25.8728
_cell_length_c 6.87
_cell_angle_alpha 90
_cell_angle_beta 90
_cell_angle_gamma 120
_space_group_name_H-M_alt 'P 1'
_space_group_name_Hall 'P 1'
loop_
    _symmetry_equiv_pos_as_xyz
    x,y,z
loop_
    _atom_site_label
    _atom_site_type_symbol
    _atom_site_fract_x
    _atom_site_fract_y
    _atom_site_fract_z
    _atom_site_occupancy
    Mg1      Mg       0.38040    0.35150    0.13820    1.000
    O1       O        0.32522    0.29556    0.36200    1.000
    O2       O        0.30284    0.22880    0.59760    1.000
    O3       O        0.35390    0.27440    0.00230    1.000
    C1       C        0.31582    0.24659    0.42390    1.000
    C2       C        0.32894    0.20868    0.28580    1.000
    C3       C        0.34593    0.22389    0.09190    1.000
    C4       C        0.35265    0.18251    0.97280    1.000
    H1       H        0.36060    0.19040    0.82630    1.000
    Mg2      Mg       0.04707    0.68483    0.47153    1.000
    O4       O        0.99189    0.62889    0.69533    1.000
    O5       O        0.96951    0.56213    0.93093    1.000
    O6       O        0.02057    0.60773    0.33563    1.000
    C5       C        0.98249    0.57992    0.75723    1.000
    C6       C        0.99561    0.54201    0.61913    1.000
    C7       C        0.01260    0.55722    0.42523    1.000
    C8       C        0.01932    0.51584    0.30613    1.000
    H2       H        0.02727    0.52373    0.15963    1.000
    Mg3      Mg       0.71373    0.01817    0.80487    1.000
    O7       O        0.65855    0.96223    0.02867    1.000
    O8       O        0.63617    0.89547    0.26427    1.000
    O9       O        0.68723    0.94107    0.66897    1.000
    C9       C        0.64915    0.91326    0.09057    1.000
    C10      C        0.66227    0.87535    0.95247    1.000
    C11      C        0.67926    0.89056    0.75857    1.000
    C12      C        0.68598    0.84918    0.63947    1.000
    H3       H        0.69393    0.85707    0.49297    1.000
    Mg4      Mg       0.64850    0.02890    0.13820    1.000
    O10      O        0.70444    0.02966    0.36200    1.000
    O11      O        0.77120    0.07404    0.59760    1.000
    O12      O        0.72560    0.07950    0.00230    1.000
    C13      C        0.75341    0.06923    0.42390    1.000
    C14      C        0.79132    0.12026    0.28580    1.000
    C15      C        0.77611    0.12204    0.09190    1.000
    C16      C        0.81749    0.17014    0.97280    1.000
    H4       H        0.80960    0.17020    0.82630    1.000
    Mg5      Mg       0.31517    0.36223    0.47153    1.000
    O13      O        0.37111    0.36299    0.69533    1.000
    O14      O        0.43787    0.40737    0.93093    1.000
    O15      O        0.39227    0.41283    0.33563    1.000
    C17      C        0.42008    0.40256    0.75723    1.000
    C18      C        0.45799    0.45359    0.61913    1.000
    C19      C        0.44278    0.45537    0.42523    1.000
    C20      C        0.48416    0.50347    0.30613    1.000
    H5       H        0.47627    0.50353    0.15963    1.000
    Mg6      Mg       0.98183    0.69557    0.80487    1.000
    O16      O        0.03777    0.69633    0.02867    1.000
    O17      O        0.10453    0.74071    0.26427    1.000
    O18      O        0.05893    0.74617    0.66897    1.000
    C21      C        0.08674    0.73590    0.09057    1.000
    C22      C        0.12465    0.78693    0.95247    1.000
    C23      C        0.10944    0.78871    0.75857    1.000
    C24      C        0.15082    0.83681    0.63947    1.000
    H6       H        0.14293    0.83687    0.49297    1.000
    Mg7      Mg       0.97110    0.61960    0.13820    1.000
    O19      O        0.97034    0.67478    0.36200    1.000
    O20      O        0.92596    0.69716    0.59760    1.000
    O21      O        0.92050    0.64610    0.00230    1.000
    C25      C        0.93077    0.68418    0.42390    1.000
    C26      C        0.87974    0.67106    0.28580    1.000
    C27      C        0.87796    0.65407    0.09190    1.000
    C28      C        0.82986    0.64735    0.97280    1.000
    H7       H        0.82980    0.63940    0.82630    1.000
    Mg8      Mg       0.63777    0.95293    0.47153    1.000
    O22      O        0.63701    0.00811    0.69533    1.000
    O23      O        0.59263    0.03049    0.93093    1.000
    O24      O        0.58717    0.97943    0.33563    1.000
    C29      C        0.59744    0.01751    0.75723    1.000
    C30      C        0.54641    0.00439    0.61913    1.000
    C31      C        0.54463    0.98740    0.42523    1.000
    C32      C        0.49653    0.98068    0.30613    1.000
    H8       H        0.49647    0.97273    0.15963    1.000
    Mg9      Mg       0.30443    0.28627    0.80487    1.000
    O25      O        0.30367    0.34145    0.02867    1.000
    O26      O        0.25929    0.36383    0.26427    1.000
    O27      O        0.25383    0.31277    0.66897    1.000
    C33      C        0.26410    0.35085    0.09057    1.000
    C34      C        0.21307    0.33773    0.95247    1.000
    C35      C        0.21129    0.32074    0.75857    1.000
    C36      C        0.16319    0.31402    0.63947    1.000
    H9       H        0.16313    0.30607    0.49297    1.000
    Mg10     Mg       0.61960    0.64850    0.86180    1.000
    O28      O        0.67478    0.70444    0.63800    1.000
    O29      O        0.69716    0.77120    0.40240    1.000
    O30      O        0.64610    0.72560    0.99770    1.000
    C37      C        0.68418    0.75341    0.57610    1.000
    C38      C        0.67106    0.79132    0.71420    1.000
    C39      C        0.65407    0.77611    0.90810    1.000
    C40      C        0.64735    0.81749    0.02720    1.000
    H10      H        0.63940    0.80960    0.17370    1.000
    Mg11     Mg       0.28627    0.98183    0.19513    1.000
    O31      O        0.34145    0.03777    0.97133    1.000
    O32      O        0.36383    0.10453    0.73573    1.000
    O33      O        0.31277    0.05893    0.33103    1.000
    C41      C        0.35085    0.08674    0.90943    1.000
    C42      C        0.33773    0.12465    0.04753    1.000
    C43      C        0.32074    0.10944    0.24143    1.000
    C44      C        0.31402    0.15082    0.36053    1.000
    H11      H        0.30607    0.14293    0.50703    1.000
    Mg12     Mg       0.95293    0.31517    0.52847    1.000
    O34      O        0.00811    0.37111    0.30467    1.000
    O35      O        0.03049    0.43787    0.06907    1.000
    O36      O        0.97943    0.39227    0.66437    1.000
    C45      C        0.01751    0.42008    0.24277    1.000
    C46      C        0.00439    0.45799    0.38087    1.000
    C47      C        0.98740    0.44278    0.57477    1.000
    C48      C        0.98068    0.48416    0.69387    1.000
    H12      H        0.97273    0.47627    0.84037    1.000
    Mg13     Mg       0.35150    0.97110    0.86180    1.000
    O37      O        0.29556    0.97034    0.63800    1.000
    O38      O        0.22880    0.92596    0.40240    1.000
    O39      O        0.27440    0.92050    0.99770    1.000
    C49      C        0.24659    0.93077    0.57610    1.000
    C50      C        0.20868    0.87974    0.71420    1.000
    C51      C        0.22389    0.87796    0.90810    1.000
    C52      C        0.18251    0.82986    0.02720    1.000
    H13      H        0.19040    0.82980    0.17370    1.000
    Mg14     Mg       0.01817    0.30443    0.19513    1.000
    O40      O        0.96223    0.30367    0.97133    1.000
    O41      O        0.89547    0.25929    0.73573    1.000
    O42      O        0.94107    0.25383    0.33103    1.000
    C53      C        0.91326    0.26410    0.90943    1.000
    C54      C        0.87535    0.21307    0.04753    1.000
    C55      C        0.89056    0.21129    0.24143    1.000
    C56      C        0.84918    0.16319    0.36053    1.000
    H14      H        0.85707    0.16313    0.50703    1.000
    Mg15     Mg       0.68483    0.63777    0.52847    1.000
    O43      O        0.62889    0.63701    0.30467    1.000
    O44      O        0.56213    0.59263    0.06907    1.000
    O45      O        0.60773    0.58717    0.66437    1.000
    C57      C        0.57992    0.59744    0.24277    1.000
    C58      C        0.54201    0.54641    0.38087    1.000
    C59      C        0.55722    0.54463    0.57477    1.000
    C60      C        0.51584    0.49653    0.69387    1.000
    H15      H        0.52373    0.49647    0.84037    1.000
    Mg16     Mg       0.02890    0.38040    0.86180    1.000
    O46      O        0.02966    0.32522    0.63800    1.000
    O47      O        0.07404    0.30284    0.40240    1.000
    O48      O        0.07950    0.35390    0.99770    1.000
    C61      C        0.06923    0.31582    0.57610    1.000
    C62      C        0.12026    0.32894    0.71420    1.000
    C63      C        0.12204    0.34593    0.90810    1.000
    C64      C        0.17014    0.35265    0.02720    1.000
    H16      H        0.17020    0.36060    0.17370    1.000
    Mg17     Mg       0.69557    0.71373    0.19513    1.000
    O49      O        0.69633    0.65855    0.97133    1.000
    O50      O        0.74071    0.63617    0.73573    1.000
    O51      O        0.74617    0.68723    0.33103    1.000
    C65      C        0.73590    0.64915    0.90943    1.000
    C66      C        0.78693    0.66227    0.04753    1.000
    C67      C        0.78871    0.67926    0.24143    1.000
    C68      C        0.83681    0.68598    0.36053    1.000
    H17      H        0.83687    0.69393    0.50703    1.000
    Mg18     Mg       0.36223    0.04707    0.52847    1.000
    O52      O        0.36299    0.99189    0.30467    1.000
    O53      O        0.40737    0.96951    0.06907    1.000
    O54      O        0.41283    0.02057    0.66437    1.000
    C69      C        0.40256    0.98249    0.24277    1.000
    C70      C        0.45359    0.99561    0.38087    1.000
    C71      C        0.45537    0.01260    0.57477    1.000
    C72      C        0.50347    0.01932    0.69387    1.000
    H18      H        0.50353    0.02727    0.84037    1.000
