# CIF file generated by openbabel 3.1.0, see https://openbabel.org
data_I
_chemical_name_common 'image0'
_cell_length_a 10.0802
_cell_length_b 17.451
_cell_length_c 11.5185
_cell_angle_alpha 90
_cell_angle_beta 99.781
_cell_angle_gamma 90
_space_group_name_H-M_alt 'P 1'
_space_group_name_Hall 'P 1'
loop_
    _symmetry_equiv_pos_as_xyz
    x,y,z
loop_
    _atom_site_label
    _atom_site_type_symbol
    _atom_site_fract_x
    _atom_site_fract_y
    _atom_site_fract_z
    _atom_site_occupancy
    C1       C        0.34870    0.07830    0.17500    1.000
    C2       C        0.84950    0.13380    0.20630    1.000
    C3       C        0.59790    0.10830    0.18970    1.000
    H1       H        0.60910    0.06100    0.15190    1.000
    C4       C        0.47040    0.12900    0.21150    1.000
    C5       C        0.70900    0.15600    0.22260    1.000
    C6       C        0.45380    0.19840    0.26860    1.000
    H2       H        0.36870    0.21230    0.28690    1.000
    C7       C        0.69160    0.22670    0.27590    1.000
    H3       H        0.76570    0.26050    0.29660    1.000
    C8       C        0.56520    0.24670    0.29810    1.000
    C9       C        0.64830    0.26480    0.55810    1.000
    H4       H        0.74330    0.26180    0.54980    1.000
    H5       H        0.60450    0.21540    0.53630    1.000
    H6       H        0.64160    0.27680    0.64000    1.000
    C10      C        0.58070    0.32580    0.47940    1.000
    C11      C        0.49280    0.38620    0.31620    1.000
    C12      C        0.44420    0.41090    0.19530    1.000
    C13      C        0.43890    0.36710    0.09260    1.000
    H7       H        0.47480    0.31660    0.09860    1.000
    C14      C        0.33430    0.46530    0.98150    1.000
    H8       H        0.29080    0.48520    0.90800    1.000
    C15      C        0.34340    0.51120    0.08130    1.000
    H9       H        0.30900    0.56190    0.07400    1.000
    N1       N        0.54730    0.31730    0.35950    1.000
    N2       N        0.54670    0.39650    0.50820    1.000
    N3       N        0.49020    0.43390    0.40490    1.000
    N4       N        0.39960    0.48500    0.18740    1.000
    N5       N        0.38440    0.39450    0.98520    1.000
    O1       O        0.35180    0.02700    0.09820    1.000
    O2       O        0.24420    0.09600    0.21520    1.000
    O3       O        0.86870    0.06345    0.18200    1.000
    O4       O        0.93950    0.18430    0.21610    1.000
    Cu1      Cu       0.43189    0.55000    0.33726    1.000
    C16      C        0.15130    0.57830    0.32500    1.000
    C17      C        0.65050    0.63380    0.29370    1.000
    C18      C        0.90210    0.60830    0.31030    1.000
    H10      H        0.89090    0.56100    0.34810    1.000
    C19      C        0.02960    0.62900    0.28850    1.000
    C20      C        0.79100    0.65600    0.27740    1.000
    C21      C        0.04620    0.69840    0.23140    1.000
    H11      H        0.13130    0.71230    0.21310    1.000
    C22      C        0.80840    0.72670    0.22410    1.000
    H12      H        0.73430    0.76050    0.20340    1.000
    C23      C        0.93480    0.74670    0.20190    1.000
    C24      C        0.85170    0.76480    0.94190    1.000
    H13      H        0.75670    0.76180    0.95020    1.000
    H14      H        0.89550    0.71540    0.96370    1.000
    H15      H        0.85840    0.77680    0.86000    1.000
    C25      C        0.91930    0.82580    0.02060    1.000
    C26      C        0.00720    0.88620    0.18380    1.000
    C27      C        0.05580    0.91090    0.30470    1.000
    C28      C        0.06110    0.86710    0.40740    1.000
    H16      H        0.02520    0.81660    0.40140    1.000
    C29      C        0.16570    0.96530    0.51850    1.000
    H17      H        0.20920    0.98520    0.59200    1.000
    C30      C        0.15660    0.01120    0.41870    1.000
    H18      H        0.19100    0.06190    0.42600    1.000
    N6       N        0.95270    0.81730    0.14050    1.000
    N7       N        0.95330    0.89650    0.99180    1.000
    N8       N        0.00980    0.93390    0.09510    1.000
    N9       N        0.10040    0.98500    0.31260    1.000
    N10      N        0.11560    0.89450    0.51480    1.000
    O5       O        0.14820    0.52700    0.40180    1.000
    O6       O        0.25580    0.59600    0.28480    1.000
    O7       O        0.63130    0.56345    0.31800    1.000
    O8       O        0.56050    0.68430    0.28390    1.000
    Cu2      Cu       0.06811    0.05000    0.16274    1.000
    C31      C        0.65130    0.92170    0.82500    1.000
    C32      C        0.15050    0.86620    0.79370    1.000
    C33      C        0.40210    0.89170    0.81030    1.000
    H19      H        0.39090    0.93900    0.84810    1.000
    C34      C        0.52960    0.87100    0.78850    1.000
    C35      C        0.29100    0.84400    0.77740    1.000
    C36      C        0.54620    0.80160    0.73140    1.000
    H20      H        0.63130    0.78770    0.71310    1.000
    C37      C        0.30840    0.77330    0.72410    1.000
    H21      H        0.23430    0.73950    0.70340    1.000
    C38      C        0.43480    0.75330    0.70190    1.000
    C39      C        0.35170    0.73520    0.44190    1.000
    H22      H        0.25670    0.73820    0.45020    1.000
    H23      H        0.39550    0.78460    0.46370    1.000
    H24      H        0.35840    0.72320    0.36000    1.000
    C40      C        0.41930    0.67420    0.52060    1.000
    C41      C        0.50720    0.61380    0.68380    1.000
    C42      C        0.55580    0.58910    0.80470    1.000
    C43      C        0.56110    0.63290    0.90740    1.000
    H25      H        0.52520    0.68340    0.90140    1.000
    C44      C        0.66570    0.53470    0.01850    1.000
    H26      H        0.70920    0.51480    0.09200    1.000
    C45      C        0.65660    0.48880    0.91870    1.000
    H27      H        0.69100    0.43810    0.92600    1.000
    N11      N        0.45270    0.68270    0.64050    1.000
    N12      N        0.45330    0.60350    0.49180    1.000
    N13      N        0.50980    0.56610    0.59510    1.000
    N14      N        0.60040    0.51500    0.81260    1.000
    N15      N        0.61560    0.60550    0.01480    1.000
    O9       O        0.64820    0.97300    0.90180    1.000
    O10      O        0.75580    0.90400    0.78480    1.000
    O11      O        0.13130    0.93655    0.81800    1.000
    O12      O        0.06050    0.81570    0.78390    1.000
    Cu3      Cu       0.56811    0.45000    0.66274    1.000
    C46      C        0.84870    0.42170    0.67500    1.000
    C47      C        0.34950    0.36620    0.70630    1.000
    C48      C        0.09790    0.39170    0.68970    1.000
    H28      H        0.10910    0.43900    0.65190    1.000
    C49      C        0.97040    0.37100    0.71150    1.000
    C50      C        0.20900    0.34400    0.72260    1.000
    C51      C        0.95380    0.30160    0.76860    1.000
    H29      H        0.86870    0.28770    0.78690    1.000
    C52      C        0.19160    0.27330    0.77590    1.000
    H30      H        0.26570    0.23950    0.79660    1.000
    C53      C        0.06520    0.25330    0.79810    1.000
    C54      C        0.14830    0.23520    0.05810    1.000
    H31      H        0.24330    0.23820    0.04980    1.000
    H32      H        0.10450    0.28460    0.03630    1.000
    H33      H        0.14160    0.22320    0.14000    1.000
    C55      C        0.08070    0.17420    0.97940    1.000
    C56      C        0.99280    0.11380    0.81620    1.000
    C57      C        0.94420    0.08910    0.69530    1.000
    C58      C        0.93890    0.13290    0.59260    1.000
    H34      H        0.97480    0.18340    0.59860    1.000
    C59      C        0.83430    0.03470    0.48150    1.000
    H35      H        0.79080    0.01480    0.40800    1.000
    C60      C        0.84340    0.98880    0.58130    1.000
    H36      H        0.80900    0.93810    0.57400    1.000
    N16      N        0.04730    0.18270    0.85950    1.000
    N17      N        0.04670    0.10350    0.00820    1.000
    N18      N        0.99020    0.06610    0.90490    1.000
    N19      N        0.89960    0.01500    0.68740    1.000
    N20      N        0.88440    0.10550    0.48520    1.000
    O13      O        0.85180    0.47300    0.59820    1.000
    O14      O        0.74420    0.40400    0.71520    1.000
    O15      O        0.36870    0.43655    0.68200    1.000
    O16      O        0.43950    0.31570    0.71610    1.000
    Cu4      Cu       0.93189    0.95000    0.83726    1.000
