# CIF file generated by openbabel 3.1.0, see https://openbabel.org
data_I
_chemical_name_common 'ECUDOX_clean'
_cell_length_a 9.5115
_cell_length_b 12.92
_cell_length_c 12.92
_cell_angle_alpha 91.9819
_cell_angle_beta 90
_cell_angle_gamma 90
_space_group_name_H-M_alt 'P 1'
_space_group_name_Hall 'P 1'
loop_
    _symmetry_equiv_pos_as_xyz
    x,y,z
loop_
    _atom_site_label
    _atom_site_type_symbol
    _atom_site_fract_x
    _atom_site_fract_y
    _atom_site_fract_z
    _atom_site_occupancy
    U1       U        0.77706    0.68040    0.09918    1.000
    U2       U        0.27706    0.31960    0.90082    1.000
    U3       U        0.27706    0.90082    0.31960    1.000
    U4       U        0.77706    0.09918    0.68040    1.000
    U5       U        0.94812    0.20613    0.20613    1.000
    U6       U        0.44812    0.79387    0.79387    1.000
    P1       P        0.90430    0.22989    0.92781    1.000
    P2       P        0.97060    0.43029    0.03619    1.000
    P3       P        0.40430    0.77011    0.07219    1.000
    P4       P        0.47060    0.56971    0.96381    1.000
    P5       P        0.40430    0.07219    0.77011    1.000
    P6       P        0.47060    0.96381    0.56971    1.000
    P7       P        0.90430    0.92781    0.22989    1.000
    P8       P        0.97060    0.03619    0.43029    1.000
    H1       H        0.95250    0.41920    0.81220    1.000
    H2       H        0.79670    0.38560    0.79020    1.000
    H3       H        0.82820    0.49030    0.85070    1.000
    H4       H        0.69060    0.42930    0.99730    1.000
    H5       H        0.45250    0.58080    0.18780    1.000
    H6       H        0.29670    0.61440    0.20980    1.000
    H7       H        0.32820    0.50970    0.14930    1.000
    H8       H        0.19060    0.57070    0.00270    1.000
    H9       H        0.45250    0.18780    0.58080    1.000
    H10      H        0.29670    0.20980    0.61440    1.000
    H11      H        0.32820    0.14930    0.50970    1.000
    H12      H        0.19060    0.00270    0.57070    1.000
    H13      H        0.95250    0.81220    0.41920    1.000
    H14      H        0.79670    0.79020    0.38560    1.000
    H15      H        0.82820    0.85070    0.49030    1.000
    H16      H        0.69060    0.99730    0.42930    1.000
    C1       C        0.85500    0.36440    0.94040    1.000
    C2       C        0.85840    0.42000    0.83920    1.000
    C3       C        0.35500    0.63560    0.05960    1.000
    C4       C        0.35840    0.58000    0.16080    1.000
    C5       C        0.35500    0.05960    0.63560    1.000
    C6       C        0.35840    0.16080    0.58000    1.000
    C7       C        0.85500    0.94040    0.36440    1.000
    C8       C        0.85840    0.83920    0.42000    1.000
    O1       O        0.90970    0.53560    0.05740    1.000
    O2       O        0.81360    0.17790    0.84510    1.000
    O3       O        0.88560    0.17830    0.03190    1.000
    O4       O        0.11450    0.43580    0.98360    1.000
    O5       O        0.97210    0.36650    0.13510    1.000
    O6       O        0.05850    0.23310    0.89510    1.000
    O7       O        0.71150    0.36890    0.98310    1.000
    O8       O        0.40970    0.46440    0.94260    1.000
    O9       O        0.31360    0.82210    0.15490    1.000
    O10      O        0.38560    0.82170    0.96810    1.000
    O11      O        0.61450    0.56420    0.01640    1.000
    O12      O        0.47210    0.63350    0.86490    1.000
    O13      O        0.55850    0.76690    0.10490    1.000
    O14      O        0.21150    0.63110    0.01690    1.000
    O15      O        0.40970    0.94260    0.46440    1.000
    O16      O        0.31360    0.15490    0.82210    1.000
    O17      O        0.38560    0.96810    0.82170    1.000
    O18      O        0.61450    0.01640    0.56420    1.000
    O19      O        0.47210    0.86490    0.63350    1.000
    O20      O        0.55850    0.10490    0.76690    1.000
    O21      O        0.21150    0.01690    0.63110    1.000
    O22      O        0.90970    0.05740    0.53560    1.000
    O23      O        0.81360    0.84510    0.17790    1.000
    O24      O        0.88560    0.03190    0.17830    1.000
    O25      O        0.11450    0.98360    0.43580    1.000
    O26      O        0.97210    0.13510    0.36650    1.000
    O27      O        0.05850    0.89510    0.23310    1.000
    O28      O        0.71150    0.98310    0.36890    1.000
