# CIF file generated by openbabel 3.1.0, see https://openbabel.org
data_I
_chemical_name_common 'image0'
_cell_length_a 21.234
_cell_length_b 12.98
_cell_length_c 13.002
_cell_angle_alpha 90
_cell_angle_beta 113.79
_cell_angle_gamma 90
_space_group_name_H-M_alt 'P 1'
_space_group_name_Hall 'P 1'
loop_
    _symmetry_equiv_pos_as_xyz
    x,y,z
loop_
    _atom_site_label
    _atom_site_type_symbol
    _atom_site_fract_x
    _atom_site_fract_y
    _atom_site_fract_z
    _atom_site_occupancy
    C1       C        0.24150    0.04760    0.10970    1.000
    H1       H        0.20020    0.06370    0.11490    1.000
    C2       C        0.33590    0.96900    0.12650    1.000
    H2       H        0.37110    0.92060    0.14640    1.000
    C3       C        0.41200    0.27010    0.18260    1.000
    H3       H        0.40640    0.22430    0.23320    1.000
    C4       C        0.45550    0.38390    0.10880    1.000
    H4       H        0.48540    0.43080    0.09820    1.000
    C5       C        0.22380    0.79770    0.16570    1.000
    H5       H        0.20350    0.78120    0.08970    1.000
    C6       C        0.28290    0.87720    0.32210    1.000
    H6       H        0.31040    0.92470    0.37460    1.000
    N1       N        0.27960    0.96140    0.14990    1.000
    N2       N        0.27330    0.10400    0.06230    1.000
    N3       N        0.33370    0.05380    0.07230    1.000
    N4       N        0.36580    0.29060    0.08190    1.000
    N5       N        0.39370    0.36390    0.03690    1.000
    N6       N        0.46960    0.32620    0.20160    1.000
    N7       N        0.25750    0.79360    0.34440    1.000
    N8       N        0.21930    0.74320    0.24380    1.000
    N9       N        0.26240    0.88350    0.20860    1.000
    C7       C        0.74150    0.54760    0.10970    1.000
    H7       H        0.70020    0.56370    0.11490    1.000
    C8       C        0.83590    0.46900    0.12650    1.000
    H8       H        0.87110    0.42060    0.14640    1.000
    C9       C        0.91200    0.77010    0.18260    1.000
    H9       H        0.90640    0.72430    0.23320    1.000
    C10      C        0.95550    0.88390    0.10880    1.000
    H10      H        0.98540    0.93080    0.09820    1.000
    C11      C        0.72380    0.29770    0.16570    1.000
    H11      H        0.70350    0.28120    0.08970    1.000
    C12      C        0.78290    0.37720    0.32210    1.000
    H12      H        0.81040    0.42470    0.37460    1.000
    N10      N        0.77960    0.46140    0.14990    1.000
    N11      N        0.77330    0.60400    0.06230    1.000
    N12      N        0.83370    0.55380    0.07230    1.000
    N13      N        0.86580    0.79060    0.08190    1.000
    N14      N        0.89370    0.86390    0.03690    1.000
    N15      N        0.96960    0.82620    0.20160    1.000
    N16      N        0.75750    0.29360    0.34440    1.000
    N17      N        0.71930    0.24320    0.24380    1.000
    N18      N        0.76240    0.38350    0.20860    1.000
    C13      C        0.75850    0.04760    0.39030    1.000
    H13      H        0.79980    0.06370    0.38510    1.000
    C14      C        0.66410    0.96900    0.37350    1.000
    H14      H        0.62890    0.92060    0.35360    1.000
    C15      C        0.58800    0.27010    0.31740    1.000
    H15      H        0.59360    0.22430    0.26680    1.000
    C16      C        0.54450    0.38390    0.39120    1.000
    H16      H        0.51460    0.43080    0.40180    1.000
    C17      C        0.77620    0.79770    0.33430    1.000
    H17      H        0.79650    0.78120    0.41030    1.000
    C18      C        0.71710    0.87720    0.17790    1.000
    H18      H        0.68960    0.92470    0.12540    1.000
    N19      N        0.72040    0.96140    0.35010    1.000
    N20      N        0.72670    0.10400    0.43770    1.000
    N21      N        0.66630    0.05380    0.42770    1.000
    N22      N        0.63420    0.29060    0.41810    1.000
    N23      N        0.60630    0.36390    0.46310    1.000
    N24      N        0.53040    0.32620    0.29840    1.000
    N25      N        0.74250    0.79360    0.15560    1.000
    N26      N        0.78070    0.74320    0.25620    1.000
    N27      N        0.73760    0.88350    0.29140    1.000
    C19      C        0.25850    0.54760    0.39030    1.000
    H19      H        0.29980    0.56370    0.38510    1.000
    C20      C        0.16410    0.46900    0.37350    1.000
    H20      H        0.12890    0.42060    0.35360    1.000
    C21      C        0.08800    0.77010    0.31740    1.000
    H21      H        0.09360    0.72430    0.26680    1.000
    C22      C        0.04450    0.88390    0.39120    1.000
    H22      H        0.01460    0.93080    0.40180    1.000
    C23      C        0.27620    0.29770    0.33430    1.000
    H23      H        0.29650    0.28120    0.41030    1.000
    C24      C        0.21710    0.37720    0.17790    1.000
    H24      H        0.18960    0.42470    0.12540    1.000
    N28      N        0.22040    0.46140    0.35010    1.000
    N29      N        0.22670    0.60400    0.43770    1.000
    N30      N        0.16630    0.55380    0.42770    1.000
    N31      N        0.13420    0.79060    0.41810    1.000
    N32      N        0.10630    0.86390    0.46310    1.000
    N33      N        0.03040    0.82620    0.29840    1.000
    N34      N        0.24250    0.29360    0.15560    1.000
    N35      N        0.28070    0.24320    0.25620    1.000
    N36      N        0.23760    0.38350    0.29140    1.000
    C25      C        0.75850    0.95240    0.89030    1.000
    H25      H        0.79980    0.93630    0.88510    1.000
    C26      C        0.66410    0.03100    0.87350    1.000
    H26      H        0.62890    0.07940    0.85360    1.000
    C27      C        0.58800    0.72990    0.81740    1.000
    H27      H        0.59360    0.77570    0.76680    1.000
    C28      C        0.54450    0.61610    0.89120    1.000
    H28      H        0.51460    0.56920    0.90180    1.000
    C29      C        0.77620    0.20230    0.83430    1.000
    H29      H        0.79650    0.21880    0.91030    1.000
    C30      C        0.71710    0.12280    0.67790    1.000
    H30      H        0.68960    0.07530    0.62540    1.000
    N37      N        0.72040    0.03860    0.85010    1.000
    N38      N        0.72670    0.89600    0.93770    1.000
    N39      N        0.66630    0.94620    0.92770    1.000
    N40      N        0.63420    0.70940    0.91810    1.000
    N41      N        0.60630    0.63610    0.96310    1.000
    N42      N        0.53040    0.67380    0.79840    1.000
    N43      N        0.74250    0.20640    0.65560    1.000
    N44      N        0.78070    0.25680    0.75620    1.000
    N45      N        0.73760    0.11650    0.79140    1.000
    C31      C        0.25850    0.45240    0.89030    1.000
    H31      H        0.29980    0.43630    0.88510    1.000
    C32      C        0.16410    0.53100    0.87350    1.000
    H32      H        0.12890    0.57940    0.85360    1.000
    C33      C        0.08800    0.22990    0.81740    1.000
    H33      H        0.09360    0.27570    0.76680    1.000
    C34      C        0.04450    0.11610    0.89120    1.000
    H34      H        0.01460    0.06920    0.90180    1.000
    C35      C        0.27620    0.70230    0.83430    1.000
    H35      H        0.29650    0.71880    0.91030    1.000
    C36      C        0.21710    0.62280    0.67790    1.000
    H36      H        0.18960    0.57530    0.62540    1.000
    N46      N        0.22040    0.53860    0.85010    1.000
    N47      N        0.22670    0.39600    0.93770    1.000
    N48      N        0.16630    0.44620    0.92770    1.000
    N49      N        0.13420    0.20940    0.91810    1.000
    N50      N        0.10630    0.13610    0.96310    1.000
    N51      N        0.03040    0.17380    0.79840    1.000
    N52      N        0.24250    0.70640    0.65560    1.000
    N53      N        0.28070    0.75680    0.75620    1.000
    N54      N        0.23760    0.61650    0.79140    1.000
    C37      C        0.24150    0.95240    0.60970    1.000
    H37      H        0.20020    0.93630    0.61490    1.000
    C38      C        0.33590    0.03100    0.62650    1.000
    H38      H        0.37110    0.07940    0.64640    1.000
    C39      C        0.41200    0.72990    0.68260    1.000
    H39      H        0.40640    0.77570    0.73320    1.000
    C40      C        0.45550    0.61610    0.60880    1.000
    H40      H        0.48540    0.56920    0.59820    1.000
    C41      C        0.22380    0.20230    0.66570    1.000
    H41      H        0.20350    0.21880    0.58970    1.000
    C42      C        0.28290    0.12280    0.82210    1.000
    H42      H        0.31040    0.07530    0.87460    1.000
    N55      N        0.27960    0.03860    0.64990    1.000
    N56      N        0.27330    0.89600    0.56230    1.000
    N57      N        0.33370    0.94620    0.57230    1.000
    N58      N        0.36580    0.70940    0.58190    1.000
    N59      N        0.39370    0.63610    0.53690    1.000
    N60      N        0.46960    0.67380    0.70160    1.000
    N61      N        0.25750    0.20640    0.84440    1.000
    N62      N        0.21930    0.25680    0.74380    1.000
    N63      N        0.26240    0.11650    0.70860    1.000
    C43      C        0.74150    0.45240    0.60970    1.000
    H43      H        0.70020    0.43630    0.61490    1.000
    C44      C        0.83590    0.53100    0.62650    1.000
    H44      H        0.87110    0.57940    0.64640    1.000
    C45      C        0.91200    0.22990    0.68260    1.000
    H45      H        0.90640    0.27570    0.73320    1.000
    C46      C        0.95550    0.11610    0.60880    1.000
    H46      H        0.98540    0.06920    0.59820    1.000
    C47      C        0.72380    0.70230    0.66570    1.000
    H47      H        0.70350    0.71880    0.58970    1.000
    C48      C        0.78290    0.62280    0.82210    1.000
    H48      H        0.81040    0.57530    0.87460    1.000
    N64      N        0.77960    0.53860    0.64990    1.000
    N65      N        0.77330    0.39600    0.56230    1.000
    N66      N        0.83370    0.44620    0.57230    1.000
    N67      N        0.86580    0.20940    0.58190    1.000
    N68      N        0.89370    0.13610    0.53690    1.000
    N69      N        0.96960    0.17380    0.70160    1.000
    N70      N        0.75750    0.70640    0.84440    1.000
    N71      N        0.71930    0.75680    0.74380    1.000
    N72      N        0.76240    0.61650    0.70860    1.000
    Cu1      Cu       0.25000    0.25000    0.00000    1.000
    Cu2      Cu       0.75000    0.25000    0.50000    1.000
    Cu3      Cu       0.75000    0.75000    0.00000    1.000
    Cu4      Cu       0.25000    0.75000    0.50000    1.000
