# CIF file generated by openbabel 3.1.0, see https://openbabel.org
data_I
_chemical_name_common 'image0'
_cell_length_a 12.924
_cell_length_b 13.137
_cell_length_c 16.6
_cell_angle_alpha 85.575
_cell_angle_beta 85.426
_cell_angle_gamma 80.098
_space_group_name_H-M_alt 'P 1'
_space_group_name_Hall 'P 1'
loop_
    _symmetry_equiv_pos_as_xyz
    x,y,z
loop_
    _atom_site_label
    _atom_site_type_symbol
    _atom_site_fract_x
    _atom_site_fract_y
    _atom_site_fract_z
    _atom_site_occupancy
    Pt1      Pt       0.99736    0.77381    0.98820    1.000
    Cu1      Cu       0.45746    0.23485    0.48986    1.000
    Na1      Na       0.60712    0.39808    0.49322    1.000
    C1       C        0.94930    0.84800    0.15930    1.000
    C2       C        0.87710    0.93410    0.13550    1.000
    C3       C        0.85420    0.96230    0.05570    1.000
    C4       C        0.78300    0.05160    0.02890    1.000
    H1       H        0.74960    0.10570    0.06160    1.000
    C5       C        0.77090    0.04670    0.94960    1.000
    H2       H        0.72710    0.09550    0.91650    1.000
    C6       C        0.83710    0.95350    0.92450    1.000
    C7       C        0.83970    0.91480    0.84830    1.000
    C8       C        0.90450    0.82390    0.82340    1.000
    C9       C        0.91330    0.78850    0.74310    1.000
    H3       H        0.87250    0.81830    0.69950    1.000
    C10      C        0.99050    0.70490    0.74130    1.000
    H4       H        0.01420    0.66490    0.69610    1.000
    C11      C        0.02990    0.68800    0.82070    1.000
    C12      C        0.11430    0.61090    0.84200    1.000
    C13      C        0.15320    0.59580    0.91830    1.000
    C14      C        0.24080    0.51720    0.94110    1.000
    H5       H        0.28270    0.47000    0.90630    1.000
    C15      C        0.25240    0.52290    0.02000    1.000
    H6       H        0.30420    0.48120    0.05120    1.000
    C16      C        0.17120    0.60470    0.04850    1.000
    C17      C        0.15560    0.63260    0.12870    1.000
    C18      C        0.07770    0.71330    0.15540    1.000
    C19      C        0.05510    0.73710    0.23900    1.000
    H7       H        0.08960    0.70170    0.28400    1.000
    C20      C        0.97610    0.81850    0.24170    1.000
    H8       H        0.94410    0.85060    0.28890    1.000
    N1       N        0.01210    0.78110    0.10690    1.000
    N2       N        0.88900    0.90420    0.98980    1.000
    N3       N        0.97680    0.76050    0.87090    1.000
    N4       N        0.11240    0.64870    0.98610    1.000
    C21      C        0.81650    0.99680    0.20020    1.000
    C22      C        0.74130    0.95450    0.25200    1.000
    H9       H        0.73230    0.88500    0.24740    1.000
    C23      C        0.68060    0.01220    0.30910    1.000
    H10      H        0.62830    0.98280    0.34200    1.000
    C24      C        0.69400    0.11340    0.32000    1.000
    C25      C        0.77070    0.15510    0.27050    1.000
    H11      H        0.78180    0.22350    0.27720    1.000
    C26      C        0.83120    0.09740    0.21150    1.000
    H12      H        0.88320    0.12690    0.17840    1.000
    C27      C        0.62400    0.18020    0.38020    1.000
    C28      C        0.77140    0.97740    0.78590    1.000
    C29      C        0.79320    0.07300    0.75800    1.000
    H13      H        0.84870    0.09880    0.77960    1.000
    C30      C        0.73550    0.13320    0.69830    1.000
    H14      H        0.75380    0.19790    0.67820    1.000
    C31      C        0.65180    0.09840    0.66860    1.000
    C32      C        0.62890    0.00170    0.69660    1.000
    H15      H        0.57210    0.97670    0.67610    1.000
    C33      C        0.68920    0.94040    0.75520    1.000
    H16      H        0.67360    0.87410    0.77360    1.000
    C34      C        0.59080    0.16750    0.60530    1.000
    C35      C        0.16360    0.53790    0.77850    1.000
    C36      C        0.26210    0.54490    0.73980    1.000
    H17      H        0.29970    0.59680    0.75320    1.000
    C37      C        0.30560    0.47590    0.68150    1.000
    H18      H        0.37230    0.48150    0.65470    1.000
    C38      C        0.25160    0.39880    0.66260    1.000
    C39      C        0.15440    0.39210    0.70150    1.000
    H19      H        0.11690    0.34010    0.68850    1.000
    C40      C        0.11060    0.46080    0.75970    1.000
    H20      H        0.04400    0.45470    0.78660    1.000
    C41      C        0.29880    0.31920    0.60300    1.000
    C42      C        0.22430    0.57310    0.19060    1.000
    C43      C        0.21360    0.47120    0.21730    1.000
    H21      H        0.16560    0.43750    0.19310    1.000
    C44      C        0.27200    0.41980    0.27810    1.000
    H22      H        0.26360    0.35100    0.29590    1.000
    C45      C        0.34390    0.46780    0.31430    1.000
    C46      C        0.35730    0.56730    0.28650    1.000
    H23      H        0.40650    0.60050    0.30980    1.000
    C47      C        0.29830    0.61840    0.22420    1.000
    H24      H        0.30920    0.68580    0.20430    1.000
    C48      C        0.40450    0.41290    0.38360    1.000
    O1       O        0.54640    0.14120    0.41570    1.000
    O2       O        0.64360    0.26730    0.39100    1.000
    O3       O        0.61750    0.25080    0.58200    1.000
    O4       O        0.51210    0.13410    0.57990    1.000
    O5       O        0.38490    0.33250    0.56630    1.000
    O6       O        0.24990    0.24760    0.59420    1.000
    O7       O        0.39550    0.31830    0.39900    1.000
    O8       O        0.45770    0.46260    0.42110    1.000
    N5       N        0.20570    0.60410    0.50250    1.000
    C49      C        0.14790    0.69640    0.52460    1.000
    H25      H        0.18020    0.73820    0.55590    1.000
    C50      C        0.04600    0.73270    0.50460    1.000
    H26      H        0.01010    0.79840    0.52000    1.000
    C51      C        0.99760    0.67020    0.46130    1.000
    H27      H        0.92710    0.69170    0.44690    1.000
    C52      C        0.05500    0.57400    0.43880    1.000
    H28      H        0.02520    0.53000    0.40770    1.000
    C53      C        0.15670    0.54620    0.46390    1.000
    H29      H        0.19350    0.47960    0.45180    1.000
    Pt2      Pt       0.00264    0.22619    0.01180    1.000
    Cu2      Cu       0.54254    0.76515    0.51014    1.000
    Na2      Na       0.39288    0.60192    0.50678    1.000
    C54      C        0.05070    0.15200    0.84070    1.000
    C55      C        0.12290    0.06590    0.86450    1.000
    C56      C        0.14580    0.03770    0.94430    1.000
    C57      C        0.21700    0.94840    0.97110    1.000
    H30      H        0.25040    0.89430    0.93840    1.000
    C58      C        0.22910    0.95330    0.05040    1.000
    H31      H        0.27290    0.90450    0.08350    1.000
    C59      C        0.16290    0.04650    0.07550    1.000
    C60      C        0.16030    0.08520    0.15170    1.000
    C61      C        0.09550    0.17610    0.17660    1.000
    C62      C        0.08670    0.21150    0.25690    1.000
    H32      H        0.12750    0.18170    0.30050    1.000
    C63      C        0.00950    0.29510    0.25870    1.000
    H33      H        0.98580    0.33510    0.30390    1.000
    C64      C        0.97010    0.31200    0.17930    1.000
    C65      C        0.88570    0.38910    0.15800    1.000
    C66      C        0.84680    0.40420    0.08170    1.000
    C67      C        0.75920    0.48280    0.05890    1.000
    H34      H        0.71730    0.53000    0.09370    1.000
    C68      C        0.74760    0.47710    0.98000    1.000
    H35      H        0.69580    0.51880    0.94880    1.000
    C69      C        0.82880    0.39530    0.95150    1.000
    C70      C        0.84440    0.36740    0.87130    1.000
    C71      C        0.92230    0.28670    0.84460    1.000
    C72      C        0.94490    0.26290    0.76100    1.000
    H36      H        0.91040    0.29830    0.71600    1.000
    C73      C        0.02390    0.18150    0.75830    1.000
    H37      H        0.05590    0.14940    0.71110    1.000
    N6       N        0.98790    0.21890    0.89310    1.000
    N7       N        0.11100    0.09580    0.01020    1.000
    N8       N        0.02320    0.23950    0.12910    1.000
    N9       N        0.88760    0.35130    0.01390    1.000
    C74      C        0.18350    0.00320    0.79980    1.000
    C75      C        0.25870    0.04550    0.74800    1.000
    H38      H        0.26770    0.11500    0.75260    1.000
    C76      C        0.31940    0.98780    0.69090    1.000
    H39      H        0.37170    0.01720    0.65800    1.000
    C77      C        0.30600    0.88660    0.68000    1.000
    C78      C        0.22930    0.84490    0.72950    1.000
    H40      H        0.21820    0.77650    0.72280    1.000
    C79      C        0.16880    0.90260    0.78850    1.000
    H41      H        0.11680    0.87310    0.82160    1.000
    C80      C        0.37600    0.81980    0.61980    1.000
    C81      C        0.22860    0.02260    0.21410    1.000
    C82      C        0.20680    0.92700    0.24200    1.000
    H42      H        0.15130    0.90120    0.22040    1.000
    C83      C        0.26450    0.86680    0.30170    1.000
    H43      H        0.24620    0.80210    0.32180    1.000
    C84      C        0.34820    0.90160    0.33140    1.000
    C85      C        0.37110    0.99830    0.30340    1.000
    H44      H        0.42790    0.02330    0.32390    1.000
    C86      C        0.31080    0.05960    0.24480    1.000
    H45      H        0.32640    0.12590    0.22640    1.000
    C87      C        0.40920    0.83250    0.39470    1.000
    C88      C        0.83640    0.46210    0.22150    1.000
    C89      C        0.73790    0.45510    0.26020    1.000
    H46      H        0.70030    0.40320    0.24680    1.000
    C90      C        0.69440    0.52410    0.31850    1.000
    H47      H        0.62770    0.51850    0.34530    1.000
    C91      C        0.74840    0.60120    0.33740    1.000
    C92      C        0.84560    0.60790    0.29850    1.000
    H48      H        0.88310    0.65990    0.31150    1.000
    C93      C        0.88940    0.53920    0.24030    1.000
    H49      H        0.95600    0.54530    0.21340    1.000
    C94      C        0.70120    0.68080    0.39700    1.000
    C95      C        0.77570    0.42690    0.80940    1.000
    C96      C        0.78640    0.52880    0.78270    1.000
    H50      H        0.83440    0.56250    0.80690    1.000
    C97      C        0.72800    0.58020    0.72190    1.000
    H51      H        0.73640    0.64900    0.70410    1.000
    C98      C        0.65610    0.53220    0.68570    1.000
    C99      C        0.64270    0.43270    0.71350    1.000
    H52      H        0.59350    0.39950    0.69020    1.000
    C100     C        0.70170    0.38160    0.77580    1.000
    H53      H        0.69080    0.31420    0.79570    1.000
    C101     C        0.59550    0.58710    0.61640    1.000
    O9       O        0.45360    0.85880    0.58430    1.000
    O10      O        0.35640    0.73270    0.60900    1.000
    O11      O        0.38250    0.74920    0.41800    1.000
    O12      O        0.48790    0.86590    0.42010    1.000
    O13      O        0.61510    0.66750    0.43370    1.000
    O14      O        0.75010    0.75240    0.40580    1.000
    O15      O        0.60450    0.68170    0.60100    1.000
    O16      O        0.54230    0.53740    0.57890    1.000
    N10      N        0.79430    0.39590    0.49750    1.000
    C102     C        0.85210    0.30360    0.47540    1.000
    H54      H        0.81980    0.26180    0.44410    1.000
    C103     C        0.95400    0.26730    0.49540    1.000
    H55      H        0.98990    0.20160    0.48000    1.000
    C104     C        0.00240    0.32980    0.53870    1.000
    H56      H        0.07290    0.30830    0.55310    1.000
    C105     C        0.94500    0.42600    0.56120    1.000
    H57      H        0.97480    0.47000    0.59230    1.000
    C106     C        0.84330    0.45380    0.53610    1.000
    H58      H        0.80650    0.52040    0.54820    1.000
    Na3      Na       0.50000    0.00000    0.50000    1.000
