# CIF file generated by openbabel 3.1.0, see https://openbabel.org
data_I
_chemical_name_common 'image0'
_cell_length_a 7.6112
_cell_length_b 11.927
_cell_length_c 12.13
_cell_angle_alpha 67.602
_cell_angle_beta 89.92
_cell_angle_gamma 80.498
_space_group_name_H-M_alt 'P 1'
_space_group_name_Hall 'P 1'
loop_
    _symmetry_equiv_pos_as_xyz
    x,y,z
loop_
    _atom_site_label
    _atom_site_type_symbol
    _atom_site_fract_x
    _atom_site_fract_y
    _atom_site_fract_z
    _atom_site_occupancy
    Ho1      Ho       0.99247    0.85483    0.35481    1.000
    Ho2      Ho       0.49254    0.85507    0.25380    1.000
    O1       O        0.46100    0.64530    0.26210    1.000
    O2       O        0.27350    0.72500    0.35910    1.000
    O3       O        0.28270    0.88860    0.10010    1.000
    O4       O        0.21880    0.10650    0.51600    1.000
    O5       O        0.48560    0.14830    0.53980    1.000
    O6       O        0.23640    0.97690    0.28800    1.000
    O7       O        0.98920    0.06590    0.32880    1.000
    O8       O        0.03750    0.34970    0.49450    1.000
    O9       O        0.23110    0.27300    0.65090    1.000
    O10      O        0.26020    0.02350    0.77320    1.000
    O11      O        0.51530    0.92980    0.88400    1.000
    C1       C        0.36000    0.92730    0.85360    1.000
    C2       C        0.27400    0.81180    0.91310    1.000
    H1       H        0.36260    0.74760    0.96950    1.000
    H2       H        0.24450    0.78300    0.85190    1.000
    C3       C        0.10700    0.82800    0.97860    1.000
    H3       H        0.01890    0.89350    0.92330    1.000
    H4       H        0.05740    0.75240    0.00310    1.000
    C4       C        0.36500    0.13930    0.47960    1.000
    C5       C        0.22400    0.19040    0.27070    1.000
    H5       H        0.13450    0.25290    0.28070    1.000
    H6       H        0.25340    0.22040    0.18770    1.000
    C6       C        0.39500    0.17000    0.35160    1.000
    H7       H        0.48200    0.10440    0.34440    1.000
    H8       H        0.44660    0.24470    0.32190    1.000
    C7       C        0.14800    0.07400    0.29940    1.000
    O12      O        0.02000    0.84520    0.16080    1.000
    C8       C        0.33100    0.63600    0.32310    1.000
    C9       C        0.13700    0.85720    0.09050    1.000
    C10      C        0.17800    0.35620    0.54880    1.000
    C11      C        0.29400    0.45500    0.49170    1.000
    H9       H        0.28630    0.50920    0.53490    1.000
    H10      H        0.41790    0.41550    0.49810    1.000
    C12      C        0.23400    0.53190    0.35910    1.000
    H11      H        0.26480    0.48310    0.31130    1.000
    H12      H        0.10640    0.56100    0.34930    1.000
    Ho3      Ho       0.00753    0.14517    0.64519    1.000
    Ho4      Ho       0.50746    0.14493    0.74620    1.000
    O13      O        0.53900    0.35470    0.73790    1.000
    O14      O        0.72650    0.27500    0.64090    1.000
    O15      O        0.71730    0.11140    0.89990    1.000
    O16      O        0.78120    0.89350    0.48400    1.000
    O17      O        0.51440    0.85170    0.46020    1.000
    O18      O        0.76360    0.02310    0.71200    1.000
    O19      O        0.01080    0.93410    0.67120    1.000
    O20      O        0.96250    0.65030    0.50550    1.000
    O21      O        0.76890    0.72700    0.34910    1.000
    O22      O        0.73980    0.97650    0.22680    1.000
    O23      O        0.48470    0.07020    0.11600    1.000
    C13      C        0.64000    0.07270    0.14640    1.000
    C14      C        0.72600    0.18820    0.08690    1.000
    H13      H        0.63740    0.25240    0.03050    1.000
    H14      H        0.75550    0.21700    0.14810    1.000
    C15      C        0.89300    0.17200    0.02140    1.000
    H15      H        0.98110    0.10650    0.07670    1.000
    H16      H        0.94260    0.24760    0.99690    1.000
    C16      C        0.63500    0.86070    0.52040    1.000
    C17      C        0.77600    0.80960    0.72930    1.000
    H17      H        0.86550    0.74710    0.71930    1.000
    H18      H        0.74660    0.77960    0.81230    1.000
    C18      C        0.60500    0.83000    0.64840    1.000
    H19      H        0.51800    0.89560    0.65560    1.000
    H20      H        0.55340    0.75530    0.67810    1.000
    C19      C        0.85200    0.92600    0.70060    1.000
    O24      O        0.98000    0.15480    0.83920    1.000
    C20      C        0.66900    0.36400    0.67690    1.000
    C21      C        0.86300    0.14280    0.90950    1.000
    C22      C        0.82200    0.64380    0.45120    1.000
    C23      C        0.70600    0.54500    0.50830    1.000
    H21      H        0.71370    0.49080    0.46510    1.000
    H22      H        0.58210    0.58450    0.50190    1.000
    C24      C        0.76600    0.46810    0.64090    1.000
    H23      H        0.73520    0.51690    0.68870    1.000
    H24      H        0.89360    0.43900    0.65070    1.000
