# CIF file generated by openbabel 3.1.0, see https://openbabel.org
data_I
_chemical_name_common 'image0'
_cell_length_a 32.4039
_cell_length_b 32.4039
_cell_length_c 32.4039
_cell_angle_alpha 60
_cell_angle_beta 60
_cell_angle_gamma 60
_space_group_name_H-M_alt 'P 1'
_space_group_name_Hall 'P 1'
loop_
    _symmetry_equiv_pos_as_xyz
    x,y,z
loop_
    _atom_site_label
    _atom_site_type_symbol
    _atom_site_fract_x
    _atom_site_fract_y
    _atom_site_fract_z
    _atom_site_occupancy
    N1       N        0.90992    0.62642    0.29224    1.000
    H1       H        0.87490    0.44270    0.31650    1.000
    H2       H        0.89920    0.50940    0.32040    1.000
    C1       C        0.95567    0.58053    0.29391    1.000
    H3       H        0.97900    0.58160    0.25920    1.000
    H4       H        0.94590    0.54990    0.31030    1.000
    C2       C        0.75532    0.70838    0.30612    1.000
    H5       H        0.74510    0.67790    0.32690    1.000
    H6       H        0.77530    0.70810    0.32150    1.000
    H7       H        0.82150    0.75450    0.18730    1.000
    C3       C        0.92571    0.67231    0.26709    1.000
    H8       H        0.89520    0.70300    0.26740    1.000
    H9       H        0.94680    0.67520    0.23140    1.000
    C4       C        0.87704    0.62676    0.34484    1.000
    H10      H        0.86410    0.59810    0.36350    1.000
    H11      H        0.84760    0.65840    0.34360    1.000
    H12      H        0.59660    0.47620    0.52560    1.000
    C5       C        0.78634    0.50956    0.31404    1.000
    H13      H        0.74880    0.52180    0.32600    1.000
    H14      H        0.79890    0.48850    0.29350    1.000
    H15      H        0.67880    0.49840    0.44900    1.000
    C6       C        0.80577    0.55561    0.28079    1.000
    H16      H        0.82790    0.55310    0.24670    1.000
    H17      H        0.77650    0.58730    0.27710    1.000
    N2       N        0.62642    0.90992    0.17142    1.000
    H18      H        0.44270    0.87490    0.36590    1.000
    H19      H        0.50940    0.89920    0.27100    1.000
    C7       C        0.58053    0.95567    0.16989    1.000
    H20      H        0.58160    0.97900    0.18020    1.000
    H21      H        0.54990    0.94590    0.19390    1.000
    C8       C        0.70838    0.75532    0.23018    1.000
    H22      H        0.67790    0.74510    0.25010    1.000
    H23      H        0.70810    0.77530    0.19510    1.000
    H24      H        0.75450    0.82150    0.23670    1.000
    C9       C        0.67231    0.92571    0.13489    1.000
    H25      H        0.70300    0.89520    0.13440    1.000
    H26      H        0.67520    0.94680    0.14660    1.000
    C10      C        0.62676    0.87704    0.15136    1.000
    H27      H        0.59810    0.86410    0.17430    1.000
    H28      H        0.65840    0.84760    0.15040    1.000
    H29      H        0.47620    0.59660    0.40160    1.000
    C11      C        0.50956    0.78634    0.39006    1.000
    H30      H        0.52180    0.74880    0.40340    1.000
    H31      H        0.48850    0.79890    0.41910    1.000
    H32      H        0.49840    0.67880    0.37380    1.000
    C12      C        0.55561    0.80577    0.35783    1.000
    H33      H        0.55310    0.82790    0.37230    1.000
    H34      H        0.58730    0.77650    0.35910    1.000
    N3       N        0.29224    0.17142    0.90992    1.000
    H35      H        0.31650    0.36590    0.87490    1.000
    H36      H        0.32040    0.27100    0.89920    1.000
    C13      C        0.29391    0.16989    0.95567    1.000
    H37      H        0.25920    0.18020    0.97900    1.000
    H38      H        0.31030    0.19390    0.94590    1.000
    C14      C        0.30612    0.23018    0.75532    1.000
    H39      H        0.32690    0.25010    0.74510    1.000
    H40      H        0.32150    0.19510    0.77530    1.000
    H41      H        0.18730    0.23670    0.82150    1.000
    C15      C        0.26709    0.13489    0.92571    1.000
    H42      H        0.26740    0.13440    0.89520    1.000
    H43      H        0.23140    0.14660    0.94680    1.000
    C16      C        0.34484    0.15136    0.87704    1.000
    H44      H        0.36350    0.17430    0.86410    1.000
    H45      H        0.34360    0.15040    0.84760    1.000
    H46      H        0.52560    0.40160    0.59660    1.000
    C17      C        0.31404    0.39006    0.78634    1.000
    H47      H        0.32600    0.40340    0.74880    1.000
    H48      H        0.29350    0.41910    0.79890    1.000
    H49      H        0.44900    0.37380    0.67880    1.000
    C18      C        0.28079    0.35783    0.80577    1.000
    H50      H        0.24670    0.37230    0.82790    1.000
    H51      H        0.27710    0.35910    0.77650    1.000
    N4       N        0.17142    0.29224    0.62642    1.000
    H52      H        0.36590    0.31650    0.44270    1.000
    H53      H        0.27100    0.32040    0.50940    1.000
    C19      C        0.16989    0.29391    0.58053    1.000
    H54      H        0.18020    0.25920    0.58160    1.000
    H55      H        0.19390    0.31030    0.54990    1.000
    C20      C        0.23018    0.30612    0.70838    1.000
    H56      H        0.25010    0.32690    0.67790    1.000
    H57      H        0.19510    0.32150    0.70810    1.000
    H58      H        0.23670    0.18730    0.75450    1.000
    C21      C        0.13489    0.26709    0.67231    1.000
    H59      H        0.13440    0.26740    0.70300    1.000
    H60      H        0.14660    0.23140    0.67520    1.000
    C22      C        0.15136    0.34484    0.62676    1.000
    H61      H        0.17430    0.36350    0.59810    1.000
    H62      H        0.15040    0.34360    0.65840    1.000
    H63      H        0.40160    0.52560    0.47620    1.000
    C23      C        0.39006    0.31404    0.50956    1.000
    H64      H        0.40340    0.32600    0.52180    1.000
    H65      H        0.41910    0.29350    0.48850    1.000
    H66      H        0.37380    0.44900    0.49840    1.000
    C24      C        0.35783    0.28079    0.55561    1.000
    H67      H        0.37230    0.24670    0.55310    1.000
    H68      H        0.35910    0.27710    0.58730    1.000
    N5       N        0.29224    0.90992    0.62642    1.000
    H69      H        0.31650    0.87490    0.44270    1.000
    H70      H        0.32040    0.89920    0.50940    1.000
    C25      C        0.29391    0.95567    0.58053    1.000
    H71      H        0.25920    0.97900    0.58160    1.000
    H72      H        0.31030    0.94590    0.54990    1.000
    C26      C        0.30612    0.75532    0.70838    1.000
    H73      H        0.32690    0.74510    0.67790    1.000
    H74      H        0.32150    0.77530    0.70810    1.000
    H75      H        0.18730    0.82150    0.75450    1.000
    C27      C        0.26709    0.92571    0.67231    1.000
    H76      H        0.26740    0.89520    0.70300    1.000
    H77      H        0.23140    0.94680    0.67520    1.000
    C28      C        0.34484    0.87704    0.62676    1.000
    H78      H        0.36350    0.86410    0.59810    1.000
    H79      H        0.34360    0.84760    0.65840    1.000
    H80      H        0.52560    0.59660    0.47620    1.000
    C29      C        0.31404    0.78634    0.50956    1.000
    H81      H        0.32600    0.74880    0.52180    1.000
    H82      H        0.29350    0.79890    0.48850    1.000
    H83      H        0.44900    0.67880    0.49840    1.000
    C30      C        0.28079    0.80577    0.55561    1.000
    H84      H        0.24670    0.82790    0.55310    1.000
    H85      H        0.27710    0.77650    0.58730    1.000
    N6       N        0.17142    0.62642    0.90992    1.000
    H86      H        0.36590    0.44270    0.87490    1.000
    H87      H        0.27100    0.50940    0.89920    1.000
    C31      C        0.16989    0.58053    0.95567    1.000
    H88      H        0.18020    0.58160    0.97900    1.000
    H89      H        0.19390    0.54990    0.94590    1.000
    C32      C        0.23018    0.70838    0.75532    1.000
    H90      H        0.25010    0.67790    0.74510    1.000
    H91      H        0.19510    0.70810    0.77530    1.000
    H92      H        0.23670    0.75450    0.82150    1.000
    C33      C        0.13489    0.67231    0.92571    1.000
    H93      H        0.13440    0.70300    0.89520    1.000
    H94      H        0.14660    0.67520    0.94680    1.000
    C34      C        0.15136    0.62676    0.87704    1.000
    H95      H        0.17430    0.59810    0.86410    1.000
    H96      H        0.15040    0.65840    0.84760    1.000
    H97      H        0.40160    0.47620    0.59660    1.000
    C35      C        0.39006    0.50956    0.78634    1.000
    H98      H        0.40340    0.52180    0.74880    1.000
    H99      H        0.41910    0.48850    0.79890    1.000
    H100     H        0.37380    0.49840    0.67880    1.000
    C36      C        0.35783    0.55561    0.80577    1.000
    H101     H        0.37230    0.55310    0.82790    1.000
    H102     H        0.35910    0.58730    0.77650    1.000
    N7       N        0.90992    0.29224    0.17142    1.000
    H103     H        0.87490    0.31650    0.36590    1.000
    H104     H        0.89920    0.32040    0.27100    1.000
    C37      C        0.95567    0.29391    0.16989    1.000
    H105     H        0.97900    0.25920    0.18020    1.000
    H106     H        0.94590    0.31030    0.19390    1.000
    C38      C        0.75532    0.30612    0.23018    1.000
    H107     H        0.74510    0.32690    0.25010    1.000
    H108     H        0.77530    0.32150    0.19510    1.000
    H109     H        0.82150    0.18730    0.23670    1.000
    C39      C        0.92571    0.26709    0.13489    1.000
    H110     H        0.89520    0.26740    0.13440    1.000
    H111     H        0.94680    0.23140    0.14660    1.000
    C40      C        0.87704    0.34484    0.15136    1.000
    H112     H        0.86410    0.36350    0.17430    1.000
    H113     H        0.84760    0.34360    0.15040    1.000
    H114     H        0.59660    0.52560    0.40160    1.000
    C41      C        0.78634    0.31404    0.39006    1.000
    H115     H        0.74880    0.32600    0.40340    1.000
    H116     H        0.79890    0.29350    0.41910    1.000
    H117     H        0.67880    0.44900    0.37380    1.000
    C42      C        0.80577    0.28079    0.35783    1.000
    H118     H        0.82790    0.24670    0.37230    1.000
    H119     H        0.77650    0.27710    0.35910    1.000
    N8       N        0.62642    0.17142    0.29224    1.000
    H120     H        0.44270    0.36590    0.31650    1.000
    H121     H        0.50940    0.27100    0.32040    1.000
    C43      C        0.58053    0.16989    0.29391    1.000
    H122     H        0.58160    0.18020    0.25920    1.000
    H123     H        0.54990    0.19390    0.31030    1.000
    C44      C        0.70838    0.23018    0.30612    1.000
    H124     H        0.67790    0.25010    0.32690    1.000
    H125     H        0.70810    0.19510    0.32150    1.000
    H126     H        0.75450    0.23670    0.18730    1.000
    C45      C        0.67231    0.13489    0.26709    1.000
    H127     H        0.70300    0.13440    0.26740    1.000
    H128     H        0.67520    0.14660    0.23140    1.000
    C46      C        0.62676    0.15136    0.34484    1.000
    H129     H        0.59810    0.17430    0.36350    1.000
    H130     H        0.65840    0.15040    0.34360    1.000
    H131     H        0.47620    0.40160    0.52560    1.000
    C47      C        0.50956    0.39006    0.31404    1.000
    H132     H        0.52180    0.40340    0.32600    1.000
    H133     H        0.48850    0.41910    0.29350    1.000
    H134     H        0.49840    0.37380    0.44900    1.000
    C48      C        0.55561    0.35783    0.28079    1.000
    H135     H        0.55310    0.37230    0.24670    1.000
    H136     H        0.58730    0.35910    0.27710    1.000
    N9       N        0.62642    0.29224    0.90992    1.000
    H137     H        0.44270    0.31650    0.87490    1.000
    H138     H        0.50940    0.32040    0.89920    1.000
    C49      C        0.58053    0.29391    0.95567    1.000
    H139     H        0.58160    0.25920    0.97900    1.000
    H140     H        0.54990    0.31030    0.94590    1.000
    C50      C        0.70838    0.30612    0.75532    1.000
    H141     H        0.67790    0.32690    0.74510    1.000
    H142     H        0.70810    0.32150    0.77530    1.000
    H143     H        0.75450    0.18730    0.82150    1.000
    C51      C        0.67231    0.26709    0.92571    1.000
    H144     H        0.70300    0.26740    0.89520    1.000
    H145     H        0.67520    0.23140    0.94680    1.000
    C52      C        0.62676    0.34484    0.87704    1.000
    H146     H        0.59810    0.36350    0.86410    1.000
    H147     H        0.65840    0.34360    0.84760    1.000
    H148     H        0.47620    0.52560    0.59660    1.000
    C53      C        0.50956    0.31404    0.78634    1.000
    H149     H        0.52180    0.32600    0.74880    1.000
    H150     H        0.48850    0.29350    0.79890    1.000
    H151     H        0.49840    0.44900    0.67880    1.000
    C54      C        0.55561    0.28079    0.80577    1.000
    H152     H        0.55310    0.24670    0.82790    1.000
    H153     H        0.58730    0.27710    0.77650    1.000
    N10      N        0.90992    0.17142    0.62642    1.000
    H154     H        0.87490    0.36590    0.44270    1.000
    H155     H        0.89920    0.27100    0.50940    1.000
    C55      C        0.95567    0.16989    0.58053    1.000
    H156     H        0.97900    0.18020    0.58160    1.000
    H157     H        0.94590    0.19390    0.54990    1.000
    C56      C        0.75532    0.23018    0.70838    1.000
    H158     H        0.74510    0.25010    0.67790    1.000
    H159     H        0.77530    0.19510    0.70810    1.000
    H160     H        0.82150    0.23670    0.75450    1.000
    C57      C        0.92571    0.13489    0.67231    1.000
    H161     H        0.89520    0.13440    0.70300    1.000
    H162     H        0.94680    0.14660    0.67520    1.000
    C58      C        0.87704    0.15136    0.62676    1.000
    H163     H        0.86410    0.17430    0.59810    1.000
    H164     H        0.84760    0.15040    0.65840    1.000
    H165     H        0.59660    0.40160    0.47620    1.000
    C59      C        0.78634    0.39006    0.50956    1.000
    H166     H        0.74880    0.40340    0.52180    1.000
    H167     H        0.79890    0.41910    0.48850    1.000
    H168     H        0.67880    0.37380    0.49840    1.000
    C60      C        0.80577    0.35783    0.55561    1.000
    H169     H        0.82790    0.37230    0.55310    1.000
    H170     H        0.77650    0.35910    0.58730    1.000
    N11      N        0.17142    0.90992    0.29224    1.000
    H171     H        0.36590    0.87490    0.31650    1.000
    H172     H        0.27100    0.89920    0.32040    1.000
    C61      C        0.16989    0.95567    0.29391    1.000
    H173     H        0.18020    0.97900    0.25920    1.000
    H174     H        0.19390    0.94590    0.31030    1.000
    C62      C        0.23018    0.75532    0.30612    1.000
    H175     H        0.25010    0.74510    0.32690    1.000
    H176     H        0.19510    0.77530    0.32150    1.000
    H177     H        0.23670    0.82150    0.18730    1.000
    C63      C        0.13489    0.92571    0.26709    1.000
    H178     H        0.13440    0.89520    0.26740    1.000
    H179     H        0.14660    0.94680    0.23140    1.000
    C64      C        0.15136    0.87704    0.34484    1.000
    H180     H        0.17430    0.86410    0.36350    1.000
    H181     H        0.15040    0.84760    0.34360    1.000
    H182     H        0.40160    0.59660    0.52560    1.000
    C65      C        0.39006    0.78634    0.31404    1.000
    H183     H        0.40340    0.74880    0.32600    1.000
    H184     H        0.41910    0.79890    0.29350    1.000
    H185     H        0.37380    0.67880    0.44900    1.000
    C66      C        0.35783    0.80577    0.28079    1.000
    H186     H        0.37230    0.82790    0.24670    1.000
    H187     H        0.35910    0.77650    0.27710    1.000
    N12      N        0.29224    0.62642    0.17142    1.000
    H188     H        0.31650    0.44270    0.36590    1.000
    H189     H        0.32040    0.50940    0.27100    1.000
    C67      C        0.29391    0.58053    0.16989    1.000
    H190     H        0.25920    0.58160    0.18020    1.000
    H191     H        0.31030    0.54990    0.19390    1.000
    C68      C        0.30612    0.70838    0.23018    1.000
    H192     H        0.32690    0.67790    0.25010    1.000
    H193     H        0.32150    0.70810    0.19510    1.000
    H194     H        0.18730    0.75450    0.23670    1.000
    C69      C        0.26709    0.67231    0.13489    1.000
    H195     H        0.26740    0.70300    0.13440    1.000
    H196     H        0.23140    0.67520    0.14660    1.000
    C70      C        0.34484    0.62676    0.15136    1.000
    H197     H        0.36350    0.59810    0.17430    1.000
    H198     H        0.34360    0.65840    0.15040    1.000
    H199     H        0.52560    0.47620    0.40160    1.000
    C71      C        0.31404    0.50956    0.39006    1.000
    H200     H        0.32600    0.52180    0.40340    1.000
    H201     H        0.29350    0.48850    0.41910    1.000
    H202     H        0.44900    0.49840    0.37380    1.000
    C72      C        0.28079    0.55561    0.35783    1.000
    H203     H        0.24670    0.55310    0.37230    1.000
    H204     H        0.27710    0.58730    0.35910    1.000
    N13      N        0.34008    0.62358    0.07858    1.000
    H205     H        0.37510    0.80730    0.88410    1.000
    H206     H        0.35080    0.74060    0.97900    1.000
    C73      C        0.29433    0.66947    0.08011    1.000
    H207     H        0.27100    0.66840    0.06980    1.000
    H208     H        0.30410    0.70010    0.05610    1.000
    C74      C        0.49468    0.54162    0.01982    1.000
    H209     H        0.50490    0.57210    0.99990    1.000
    H210     H        0.47470    0.54190    0.05490    1.000
    H211     H        0.42850    0.49550    0.01330    1.000
    C75      C        0.32429    0.57769    0.11511    1.000
    H212     H        0.35480    0.54700    0.11560    1.000
    H213     H        0.30320    0.57480    0.10340    1.000
    C76      C        0.37296    0.62324    0.09864    1.000
    H214     H        0.38590    0.65190    0.07570    1.000
    H215     H        0.40240    0.59160    0.09960    1.000
    H216     H        0.65340    0.77380    0.84840    1.000
    C77      C        0.46366    0.74044    0.85994    1.000
    H217     H        0.50120    0.72820    0.84660    1.000
    H218     H        0.45110    0.76150    0.83090    1.000
    H219     H        0.57120    0.75160    0.87620    1.000
    C78      C        0.44423    0.69439    0.89217    1.000
    H220     H        0.42210    0.69690    0.87770    1.000
    H221     H        0.47350    0.66270    0.89090    1.000
    N14      N        0.62358    0.34008    0.95776    1.000
    H222     H        0.80730    0.37510    0.93350    1.000
    H223     H        0.74060    0.35080    0.92960    1.000
    C79      C        0.66947    0.29433    0.95609    1.000
    H224     H        0.66840    0.27100    0.99080    1.000
    H225     H        0.70010    0.30410    0.93970    1.000
    C80      C        0.54162    0.49468    0.94388    1.000
    H226     H        0.57210    0.50490    0.92310    1.000
    H227     H        0.54190    0.47470    0.92850    1.000
    H228     H        0.49550    0.42850    0.06270    1.000
    C81      C        0.57769    0.32429    0.98291    1.000
    H229     H        0.54700    0.35480    0.98260    1.000
    H230     H        0.57480    0.30320    0.01860    1.000
    C82      C        0.62324    0.37296    0.90516    1.000
    H231     H        0.65190    0.38590    0.88650    1.000
    H232     H        0.59160    0.40240    0.90640    1.000
    H233     H        0.77380    0.65340    0.72440    1.000
    C83      C        0.74044    0.46366    0.93596    1.000
    H234     H        0.72820    0.50120    0.92400    1.000
    H235     H        0.76150    0.45110    0.95650    1.000
    H236     H        0.75160    0.57120    0.80100    1.000
    C84      C        0.69439    0.44423    0.96921    1.000
    H237     H        0.69690    0.42210    0.00330    1.000
    H238     H        0.66270    0.47350    0.97290    1.000
    N15      N        0.95776    0.07858    0.62358    1.000
    H239     H        0.93350    0.88410    0.80730    1.000
    H240     H        0.92960    0.97900    0.74060    1.000
    C85      C        0.95609    0.08011    0.66947    1.000
    H241     H        0.99080    0.06980    0.66840    1.000
    H242     H        0.93970    0.05610    0.70010    1.000
    C86      C        0.94388    0.01982    0.54162    1.000
    H243     H        0.92310    0.99990    0.57210    1.000
    H244     H        0.92850    0.05490    0.54190    1.000
    H245     H        0.06270    0.01330    0.49550    1.000
    C87      C        0.98291    0.11511    0.57769    1.000
    H246     H        0.98260    0.11560    0.54700    1.000
    H247     H        0.01860    0.10340    0.57480    1.000
    C88      C        0.90516    0.09864    0.62324    1.000
    H248     H        0.88650    0.07570    0.65190    1.000
    H249     H        0.90640    0.09960    0.59160    1.000
    H250     H        0.72440    0.84840    0.77380    1.000
    C89      C        0.93596    0.85994    0.74044    1.000
    H251     H        0.92400    0.84660    0.72820    1.000
    H252     H        0.95650    0.83090    0.76150    1.000
    H253     H        0.80100    0.87620    0.75160    1.000
    C90      C        0.96921    0.89217    0.69439    1.000
    H254     H        0.00330    0.87770    0.69690    1.000
    H255     H        0.97290    0.89090    0.66270    1.000
    N16      N        0.07858    0.95776    0.34008    1.000
    H256     H        0.88410    0.93350    0.37510    1.000
    H257     H        0.97900    0.92960    0.35080    1.000
    C91      C        0.08011    0.95609    0.29433    1.000
    H258     H        0.06980    0.99080    0.27100    1.000
    H259     H        0.05610    0.93970    0.30410    1.000
    C92      C        0.01982    0.94388    0.49468    1.000
    H260     H        0.99990    0.92310    0.50490    1.000
    H261     H        0.05490    0.92850    0.47470    1.000
    H262     H        0.01330    0.06270    0.42850    1.000
    C93      C        0.11511    0.98291    0.32429    1.000
    H263     H        0.11560    0.98260    0.35480    1.000
    H264     H        0.10340    0.01860    0.30320    1.000
    C94      C        0.09864    0.90516    0.37296    1.000
    H265     H        0.07570    0.88650    0.38590    1.000
    H266     H        0.09960    0.90640    0.40240    1.000
    H267     H        0.84840    0.72440    0.65340    1.000
    C95      C        0.85994    0.93596    0.46366    1.000
    H268     H        0.84660    0.92400    0.50120    1.000
    H269     H        0.83090    0.95650    0.45110    1.000
    H270     H        0.87620    0.80100    0.57120    1.000
    C96      C        0.89217    0.96921    0.44423    1.000
    H271     H        0.87770    0.00330    0.42210    1.000
    H272     H        0.89090    0.97290    0.47350    1.000
    N17      N        0.95776    0.34008    0.07858    1.000
    H273     H        0.93350    0.37510    0.88410    1.000
    H274     H        0.92960    0.35080    0.97900    1.000
    C97      C        0.95609    0.29433    0.08011    1.000
    H275     H        0.99080    0.27100    0.06980    1.000
    H276     H        0.93970    0.30410    0.05610    1.000
    C98      C        0.94388    0.49468    0.01982    1.000
    H277     H        0.92310    0.50490    0.99990    1.000
    H278     H        0.92850    0.47470    0.05490    1.000
    H279     H        0.06270    0.42850    0.01330    1.000
    C99      C        0.98291    0.32429    0.11511    1.000
    H280     H        0.98260    0.35480    0.11560    1.000
    H281     H        0.01860    0.30320    0.10340    1.000
    C100     C        0.90516    0.37296    0.09864    1.000
    H282     H        0.88650    0.38590    0.07570    1.000
    H283     H        0.90640    0.40240    0.09960    1.000
    H284     H        0.72440    0.65340    0.84840    1.000
    C101     C        0.93596    0.46366    0.85994    1.000
    H285     H        0.92400    0.50120    0.84660    1.000
    H286     H        0.95650    0.45110    0.83090    1.000
    H287     H        0.80100    0.57120    0.87620    1.000
    C102     C        0.96921    0.44423    0.89217    1.000
    H288     H        0.00330    0.42210    0.87770    1.000
    H289     H        0.97290    0.47350    0.89090    1.000
    N18      N        0.07858    0.62358    0.95776    1.000
    H290     H        0.88410    0.80730    0.93350    1.000
    H291     H        0.97900    0.74060    0.92960    1.000
    C103     C        0.08011    0.66947    0.95609    1.000
    H292     H        0.06980    0.66840    0.99080    1.000
    H293     H        0.05610    0.70010    0.93970    1.000
    C104     C        0.01982    0.54162    0.94388    1.000
    H294     H        0.99990    0.57210    0.92310    1.000
    H295     H        0.05490    0.54190    0.92850    1.000
    H296     H        0.01330    0.49550    0.06270    1.000
    C105     C        0.11511    0.57769    0.98291    1.000
    H297     H        0.11560    0.54700    0.98260    1.000
    H298     H        0.10340    0.57480    0.01860    1.000
    C106     C        0.09864    0.62324    0.90516    1.000
    H299     H        0.07570    0.65190    0.88650    1.000
    H300     H        0.09960    0.59160    0.90640    1.000
    H301     H        0.84840    0.77380    0.72440    1.000
    C107     C        0.85994    0.74044    0.93596    1.000
    H302     H        0.84660    0.72820    0.92400    1.000
    H303     H        0.83090    0.76150    0.95650    1.000
    H304     H        0.87620    0.75160    0.80100    1.000
    C108     C        0.89217    0.69439    0.96921    1.000
    H305     H        0.87770    0.69690    0.00330    1.000
    H306     H        0.89090    0.66270    0.97290    1.000
    N19      N        0.34008    0.95776    0.62358    1.000
    H307     H        0.37510    0.93350    0.80730    1.000
    H308     H        0.35080    0.92960    0.74060    1.000
    C109     C        0.29433    0.95609    0.66947    1.000
    H309     H        0.27100    0.99080    0.66840    1.000
    H310     H        0.30410    0.93970    0.70010    1.000
    C110     C        0.49468    0.94388    0.54162    1.000
    H311     H        0.50490    0.92310    0.57210    1.000
    H312     H        0.47470    0.92850    0.54190    1.000
    H313     H        0.42850    0.06270    0.49550    1.000
    C111     C        0.32429    0.98291    0.57769    1.000
    H314     H        0.35480    0.98260    0.54700    1.000
    H315     H        0.30320    0.01860    0.57480    1.000
    C112     C        0.37296    0.90516    0.62324    1.000
    H316     H        0.38590    0.88650    0.65190    1.000
    H317     H        0.40240    0.90640    0.59160    1.000
    H318     H        0.65340    0.72440    0.77380    1.000
    C113     C        0.46366    0.93596    0.74044    1.000
    H319     H        0.50120    0.92400    0.72820    1.000
    H320     H        0.45110    0.95650    0.76150    1.000
    H321     H        0.57120    0.80100    0.75160    1.000
    C114     C        0.44423    0.96921    0.69439    1.000
    H322     H        0.42210    0.00330    0.69690    1.000
    H323     H        0.47350    0.97290    0.66270    1.000
    N20      N        0.62358    0.07858    0.34008    1.000
    H324     H        0.80730    0.88410    0.37510    1.000
    H325     H        0.74060    0.97900    0.35080    1.000
    C115     C        0.66947    0.08011    0.29433    1.000
    H326     H        0.66840    0.06980    0.27100    1.000
    H327     H        0.70010    0.05610    0.30410    1.000
    C116     C        0.54162    0.01982    0.49468    1.000
    H328     H        0.57210    0.99990    0.50490    1.000
    H329     H        0.54190    0.05490    0.47470    1.000
    H330     H        0.49550    0.01330    0.42850    1.000
    C117     C        0.57769    0.11511    0.32429    1.000
    H331     H        0.54700    0.11560    0.35480    1.000
    H332     H        0.57480    0.10340    0.30320    1.000
    C118     C        0.62324    0.09864    0.37296    1.000
    H333     H        0.65190    0.07570    0.38590    1.000
    H334     H        0.59160    0.09960    0.40240    1.000
    H335     H        0.77380    0.84840    0.65340    1.000
    C119     C        0.74044    0.85994    0.46366    1.000
    H336     H        0.72820    0.84660    0.50120    1.000
    H337     H        0.76150    0.83090    0.45110    1.000
    H338     H        0.75160    0.87620    0.57120    1.000
    C120     C        0.69439    0.89217    0.44423    1.000
    H339     H        0.69690    0.87770    0.42210    1.000
    H340     H        0.66270    0.89090    0.47350    1.000
    N21      N        0.62358    0.95776    0.07858    1.000
    H341     H        0.80730    0.93350    0.88410    1.000
    H342     H        0.74060    0.92960    0.97900    1.000
    C121     C        0.66947    0.95609    0.08011    1.000
    H343     H        0.66840    0.99080    0.06980    1.000
    H344     H        0.70010    0.93970    0.05610    1.000
    C122     C        0.54162    0.94388    0.01982    1.000
    H345     H        0.57210    0.92310    0.99990    1.000
    H346     H        0.54190    0.92850    0.05490    1.000
    H347     H        0.49550    0.06270    0.01330    1.000
    C123     C        0.57769    0.98291    0.11511    1.000
    H348     H        0.54700    0.98260    0.11560    1.000
    H349     H        0.57480    0.01860    0.10340    1.000
    C124     C        0.62324    0.90516    0.09864    1.000
    H350     H        0.65190    0.88650    0.07570    1.000
    H351     H        0.59160    0.90640    0.09960    1.000
    H352     H        0.77380    0.72440    0.84840    1.000
    C125     C        0.74044    0.93596    0.85994    1.000
    H353     H        0.72820    0.92400    0.84660    1.000
    H354     H        0.76150    0.95650    0.83090    1.000
    H355     H        0.75160    0.80100    0.87620    1.000
    C126     C        0.69439    0.96921    0.89217    1.000
    H356     H        0.69690    0.00330    0.87770    1.000
    H357     H        0.66270    0.97290    0.89090    1.000
    N22      N        0.34008    0.07858    0.95776    1.000
    H358     H        0.37510    0.88410    0.93350    1.000
    H359     H        0.35080    0.97900    0.92960    1.000
    C127     C        0.29433    0.08011    0.95609    1.000
    H360     H        0.27100    0.06980    0.99080    1.000
    H361     H        0.30410    0.05610    0.93970    1.000
    C128     C        0.49468    0.01982    0.94388    1.000
    H362     H        0.50490    0.99990    0.92310    1.000
    H363     H        0.47470    0.05490    0.92850    1.000
    H364     H        0.42850    0.01330    0.06270    1.000
    C129     C        0.32429    0.11511    0.98291    1.000
    H365     H        0.35480    0.11560    0.98260    1.000
    H366     H        0.30320    0.10340    0.01860    1.000
    C130     C        0.37296    0.09864    0.90516    1.000
    H367     H        0.38590    0.07570    0.88650    1.000
    H368     H        0.40240    0.09960    0.90640    1.000
    H369     H        0.65340    0.84840    0.72440    1.000
    C131     C        0.46366    0.85994    0.93596    1.000
    H370     H        0.50120    0.84660    0.92400    1.000
    H371     H        0.45110    0.83090    0.95650    1.000
    H372     H        0.57120    0.87620    0.80100    1.000
    C132     C        0.44423    0.89217    0.96921    1.000
    H373     H        0.42210    0.87770    0.00330    1.000
    H374     H        0.47350    0.89090    0.97290    1.000
    N23      N        0.07858    0.34008    0.62358    1.000
    H375     H        0.88410    0.37510    0.80730    1.000
    H376     H        0.97900    0.35080    0.74060    1.000
    C133     C        0.08011    0.29433    0.66947    1.000
    H377     H        0.06980    0.27100    0.66840    1.000
    H378     H        0.05610    0.30410    0.70010    1.000
    C134     C        0.01982    0.49468    0.54162    1.000
    H379     H        0.99990    0.50490    0.57210    1.000
    H380     H        0.05490    0.47470    0.54190    1.000
    H381     H        0.01330    0.42850    0.49550    1.000
    C135     C        0.11511    0.32429    0.57769    1.000
    H382     H        0.11560    0.35480    0.54700    1.000
    H383     H        0.10340    0.30320    0.57480    1.000
    C136     C        0.09864    0.37296    0.62324    1.000
    H384     H        0.07570    0.38590    0.65190    1.000
    H385     H        0.09960    0.40240    0.59160    1.000
    H386     H        0.84840    0.65340    0.77380    1.000
    C137     C        0.85994    0.46366    0.74044    1.000
    H387     H        0.84660    0.50120    0.72820    1.000
    H388     H        0.83090    0.45110    0.76150    1.000
    H389     H        0.87620    0.57120    0.75160    1.000
    C138     C        0.89217    0.44423    0.69439    1.000
    H390     H        0.87770    0.42210    0.69690    1.000
    H391     H        0.89090    0.47350    0.66270    1.000
    N24      N        0.95776    0.62358    0.34008    1.000
    H392     H        0.93350    0.80730    0.37510    1.000
    H393     H        0.92960    0.74060    0.35080    1.000
    C139     C        0.95609    0.66947    0.29433    1.000
    H394     H        0.99080    0.66840    0.27100    1.000
    H395     H        0.93970    0.70010    0.30410    1.000
    C140     C        0.94388    0.54162    0.49468    1.000
    H396     H        0.92310    0.57210    0.50490    1.000
    H397     H        0.92850    0.54190    0.47470    1.000
    H398     H        0.06270    0.49550    0.42850    1.000
    C141     C        0.98291    0.57769    0.32429    1.000
    H399     H        0.98260    0.54700    0.35480    1.000
    H400     H        0.01860    0.57480    0.30320    1.000
    C142     C        0.90516    0.62324    0.37296    1.000
    H401     H        0.88650    0.65190    0.38590    1.000
    H402     H        0.90640    0.59160    0.40240    1.000
    H403     H        0.72440    0.77380    0.65340    1.000
    C143     C        0.93596    0.74044    0.46366    1.000
    H404     H        0.92400    0.72820    0.50120    1.000
    H405     H        0.95650    0.76150    0.45110    1.000
    H406     H        0.80100    0.75160    0.57120    1.000
    C144     C        0.96921    0.69439    0.44423    1.000
    H407     H        0.00330    0.69690    0.42210    1.000
    H408     H        0.97290    0.66270    0.47350    1.000
    N25      N        0.34008    0.62358    0.95776    1.000
    H409     H        0.37510    0.80730    0.93350    1.000
    H410     H        0.35080    0.74060    0.92960    1.000
    C145     C        0.29433    0.66947    0.95609    1.000
    H411     H        0.27100    0.66840    0.99080    1.000
    H412     H        0.30410    0.70010    0.93970    1.000
    C146     C        0.49468    0.54162    0.94388    1.000
    H413     H        0.50490    0.57210    0.92310    1.000
    H414     H        0.47470    0.54190    0.92850    1.000
    H415     H        0.42850    0.49550    0.06270    1.000
    C147     C        0.32429    0.57769    0.98291    1.000
    H416     H        0.35480    0.54700    0.98260    1.000
    H417     H        0.30320    0.57480    0.01860    1.000
    C148     C        0.37296    0.62324    0.90516    1.000
    H418     H        0.38590    0.65190    0.88650    1.000
    H419     H        0.40240    0.59160    0.90640    1.000
    H420     H        0.65340    0.77380    0.72440    1.000
    C149     C        0.46366    0.74044    0.93596    1.000
    H421     H        0.50120    0.72820    0.92400    1.000
    H422     H        0.45110    0.76150    0.95650    1.000
    H423     H        0.57120    0.75160    0.80100    1.000
    C150     C        0.44423    0.69439    0.96921    1.000
    H424     H        0.42210    0.69690    0.00330    1.000
    H425     H        0.47350    0.66270    0.97290    1.000
    N26      N        0.62358    0.34008    0.07858    1.000
    H426     H        0.80730    0.37510    0.88410    1.000
    H427     H        0.74060    0.35080    0.97900    1.000
    C151     C        0.66947    0.29433    0.08011    1.000
    H428     H        0.66840    0.27100    0.06980    1.000
    H429     H        0.70010    0.30410    0.05610    1.000
    C152     C        0.54162    0.49468    0.01982    1.000
    H430     H        0.57210    0.50490    0.99990    1.000
    H431     H        0.54190    0.47470    0.05490    1.000
    H432     H        0.49550    0.42850    0.01330    1.000
    C153     C        0.57769    0.32429    0.11511    1.000
    H433     H        0.54700    0.35480    0.11560    1.000
    H434     H        0.57480    0.30320    0.10340    1.000
    C154     C        0.62324    0.37296    0.09864    1.000
    H435     H        0.65190    0.38590    0.07570    1.000
    H436     H        0.59160    0.40240    0.09960    1.000
    H437     H        0.77380    0.65340    0.84840    1.000
    C155     C        0.74044    0.46366    0.85994    1.000
    H438     H        0.72820    0.50120    0.84660    1.000
    H439     H        0.76150    0.45110    0.83090    1.000
    H440     H        0.75160    0.57120    0.87620    1.000
    C156     C        0.69439    0.44423    0.89217    1.000
    H441     H        0.69690    0.42210    0.87770    1.000
    H442     H        0.66270    0.47350    0.89090    1.000
    N27      N        0.95776    0.07858    0.34008    1.000
    H443     H        0.93350    0.88410    0.37510    1.000
    H444     H        0.92960    0.97900    0.35080    1.000
    C157     C        0.95609    0.08011    0.29433    1.000
    H445     H        0.99080    0.06980    0.27100    1.000
    H446     H        0.93970    0.05610    0.30410    1.000
    C158     C        0.94388    0.01982    0.49468    1.000
    H447     H        0.92310    0.99990    0.50490    1.000
    H448     H        0.92850    0.05490    0.47470    1.000
    H449     H        0.06270    0.01330    0.42850    1.000
    C159     C        0.98291    0.11511    0.32429    1.000
    H450     H        0.98260    0.11560    0.35480    1.000
    H451     H        0.01860    0.10340    0.30320    1.000
    C160     C        0.90516    0.09864    0.37296    1.000
    H452     H        0.88650    0.07570    0.38590    1.000
    H453     H        0.90640    0.09960    0.40240    1.000
    H454     H        0.72440    0.84840    0.65340    1.000
    C161     C        0.93596    0.85994    0.46366    1.000
    H455     H        0.92400    0.84660    0.50120    1.000
    H456     H        0.95650    0.83090    0.45110    1.000
    H457     H        0.80100    0.87620    0.57120    1.000
    C162     C        0.96921    0.89217    0.44423    1.000
    H458     H        0.00330    0.87770    0.42210    1.000
    H459     H        0.97290    0.89090    0.47350    1.000
    N28      N        0.07858    0.95776    0.62358    1.000
    H460     H        0.88410    0.93350    0.80730    1.000
    H461     H        0.97900    0.92960    0.74060    1.000
    C163     C        0.08011    0.95609    0.66947    1.000
    H462     H        0.06980    0.99080    0.66840    1.000
    H463     H        0.05610    0.93970    0.70010    1.000
    C164     C        0.01982    0.94388    0.54162    1.000
    H464     H        0.99990    0.92310    0.57210    1.000
    H465     H        0.05490    0.92850    0.54190    1.000
    H466     H        0.01330    0.06270    0.49550    1.000
    C165     C        0.11511    0.98291    0.57769    1.000
    H467     H        0.11560    0.98260    0.54700    1.000
    H468     H        0.10340    0.01860    0.57480    1.000
    C166     C        0.09864    0.90516    0.62324    1.000
    H469     H        0.07570    0.88650    0.65190    1.000
    H470     H        0.09960    0.90640    0.59160    1.000
    H471     H        0.84840    0.72440    0.77380    1.000
    C167     C        0.85994    0.93596    0.74044    1.000
    H472     H        0.84660    0.92400    0.72820    1.000
    H473     H        0.83090    0.95650    0.76150    1.000
    H474     H        0.87620    0.80100    0.75160    1.000
    C168     C        0.89217    0.96921    0.69439    1.000
    H475     H        0.87770    0.00330    0.69690    1.000
    H476     H        0.89090    0.97290    0.66270    1.000
    N29      N        0.95776    0.34008    0.62358    1.000
    H477     H        0.93350    0.37510    0.80730    1.000
    H478     H        0.92960    0.35080    0.74060    1.000
    C169     C        0.95609    0.29433    0.66947    1.000
    H479     H        0.99080    0.27100    0.66840    1.000
    H480     H        0.93970    0.30410    0.70010    1.000
    C170     C        0.94388    0.49468    0.54162    1.000
    H481     H        0.92310    0.50490    0.57210    1.000
    H482     H        0.92850    0.47470    0.54190    1.000
    H483     H        0.06270    0.42850    0.49550    1.000
    C171     C        0.98291    0.32429    0.57769    1.000
    H484     H        0.98260    0.35480    0.54700    1.000
    H485     H        0.01860    0.30320    0.57480    1.000
    C172     C        0.90516    0.37296    0.62324    1.000
    H486     H        0.88650    0.38590    0.65190    1.000
    H487     H        0.90640    0.40240    0.59160    1.000
    H488     H        0.72440    0.65340    0.77380    1.000
    C173     C        0.93596    0.46366    0.74044    1.000
    H489     H        0.92400    0.50120    0.72820    1.000
    H490     H        0.95650    0.45110    0.76150    1.000
    H491     H        0.80100    0.57120    0.75160    1.000
    C174     C        0.96921    0.44423    0.69439    1.000
    H492     H        0.00330    0.42210    0.69690    1.000
    H493     H        0.97290    0.47350    0.66270    1.000
    N30      N        0.07858    0.62358    0.34008    1.000
    H494     H        0.88410    0.80730    0.37510    1.000
    H495     H        0.97900    0.74060    0.35080    1.000
    C175     C        0.08011    0.66947    0.29433    1.000
    H496     H        0.06980    0.66840    0.27100    1.000
    H497     H        0.05610    0.70010    0.30410    1.000
    C176     C        0.01982    0.54162    0.49468    1.000
    H498     H        0.99990    0.57210    0.50490    1.000
    H499     H        0.05490    0.54190    0.47470    1.000
    H500     H        0.01330    0.49550    0.42850    1.000
    C177     C        0.11511    0.57769    0.32429    1.000
    H501     H        0.11560    0.54700    0.35480    1.000
    H502     H        0.10340    0.57480    0.30320    1.000
    C178     C        0.09864    0.62324    0.37296    1.000
    H503     H        0.07570    0.65190    0.38590    1.000
    H504     H        0.09960    0.59160    0.40240    1.000
    H505     H        0.84840    0.77380    0.65340    1.000
    C179     C        0.85994    0.74044    0.46366    1.000
    H506     H        0.84660    0.72820    0.50120    1.000
    H507     H        0.83090    0.76150    0.45110    1.000
    H508     H        0.87620    0.75160    0.57120    1.000
    C180     C        0.89217    0.69439    0.44423    1.000
    H509     H        0.87770    0.69690    0.42210    1.000
    H510     H        0.89090    0.66270    0.47350    1.000
    N31      N        0.34008    0.95776    0.07858    1.000
    H511     H        0.37510    0.93350    0.88410    1.000
    H512     H        0.35080    0.92960    0.97900    1.000
    C181     C        0.29433    0.95609    0.08011    1.000
    H513     H        0.27100    0.99080    0.06980    1.000
    H514     H        0.30410    0.93970    0.05610    1.000
    C182     C        0.49468    0.94388    0.01982    1.000
    H515     H        0.50490    0.92310    0.99990    1.000
    H516     H        0.47470    0.92850    0.05490    1.000
    H517     H        0.42850    0.06270    0.01330    1.000
    C183     C        0.32429    0.98291    0.11511    1.000
    H518     H        0.35480    0.98260    0.11560    1.000
    H519     H        0.30320    0.01860    0.10340    1.000
    C184     C        0.37296    0.90516    0.09864    1.000
    H520     H        0.38590    0.88650    0.07570    1.000
    H521     H        0.40240    0.90640    0.09960    1.000
    H522     H        0.65340    0.72440    0.84840    1.000
    C185     C        0.46366    0.93596    0.85994    1.000
    H523     H        0.50120    0.92400    0.84660    1.000
    H524     H        0.45110    0.95650    0.83090    1.000
    H525     H        0.57120    0.80100    0.87620    1.000
    C186     C        0.44423    0.96921    0.89217    1.000
    H526     H        0.42210    0.00330    0.87770    1.000
    H527     H        0.47350    0.97290    0.89090    1.000
    N32      N        0.62358    0.07858    0.95776    1.000
    H528     H        0.80730    0.88410    0.93350    1.000
    H529     H        0.74060    0.97900    0.92960    1.000
    C187     C        0.66947    0.08011    0.95609    1.000
    H530     H        0.66840    0.06980    0.99080    1.000
    H531     H        0.70010    0.05610    0.93970    1.000
    C188     C        0.54162    0.01982    0.94388    1.000
    H532     H        0.57210    0.99990    0.92310    1.000
    H533     H        0.54190    0.05490    0.92850    1.000
    H534     H        0.49550    0.01330    0.06270    1.000
    C189     C        0.57769    0.11511    0.98291    1.000
    H535     H        0.54700    0.11560    0.98260    1.000
    H536     H        0.57480    0.10340    0.01860    1.000
    C190     C        0.62324    0.09864    0.90516    1.000
    H537     H        0.65190    0.07570    0.88650    1.000
    H538     H        0.59160    0.09960    0.90640    1.000
    H539     H        0.77380    0.84840    0.72440    1.000
    C191     C        0.74044    0.85994    0.93596    1.000
    H540     H        0.72820    0.84660    0.92400    1.000
    H541     H        0.76150    0.83090    0.95650    1.000
    H542     H        0.75160    0.87620    0.80100    1.000
    C192     C        0.69439    0.89217    0.96921    1.000
    H543     H        0.69690    0.87770    0.00330    1.000
    H544     H        0.66270    0.89090    0.97290    1.000
    N33      N        0.62358    0.95776    0.34008    1.000
    H545     H        0.80730    0.93350    0.37510    1.000
    H546     H        0.74060    0.92960    0.35080    1.000
    C193     C        0.66947    0.95609    0.29433    1.000
    H547     H        0.66840    0.99080    0.27100    1.000
    H548     H        0.70010    0.93970    0.30410    1.000
    C194     C        0.54162    0.94388    0.49468    1.000
    H549     H        0.57210    0.92310    0.50490    1.000
    H550     H        0.54190    0.92850    0.47470    1.000
    H551     H        0.49550    0.06270    0.42850    1.000
    C195     C        0.57769    0.98291    0.32429    1.000
    H552     H        0.54700    0.98260    0.35480    1.000
    H553     H        0.57480    0.01860    0.30320    1.000
    C196     C        0.62324    0.90516    0.37296    1.000
    H554     H        0.65190    0.88650    0.38590    1.000
    H555     H        0.59160    0.90640    0.40240    1.000
    H556     H        0.77380    0.72440    0.65340    1.000
    C197     C        0.74044    0.93596    0.46366    1.000
    H557     H        0.72820    0.92400    0.50120    1.000
    H558     H        0.76150    0.95650    0.45110    1.000
    H559     H        0.75160    0.80100    0.57120    1.000
    C198     C        0.69439    0.96921    0.44423    1.000
    H560     H        0.69690    0.00330    0.42210    1.000
    H561     H        0.66270    0.97290    0.47350    1.000
    N34      N        0.34008    0.07858    0.62358    1.000
    H562     H        0.37510    0.88410    0.80730    1.000
    H563     H        0.35080    0.97900    0.74060    1.000
    C199     C        0.29433    0.08011    0.66947    1.000
    H564     H        0.27100    0.06980    0.66840    1.000
    H565     H        0.30410    0.05610    0.70010    1.000
    C200     C        0.49468    0.01982    0.54162    1.000
    H566     H        0.50490    0.99990    0.57210    1.000
    H567     H        0.47470    0.05490    0.54190    1.000
    H568     H        0.42850    0.01330    0.49550    1.000
    C201     C        0.32429    0.11511    0.57769    1.000
    H569     H        0.35480    0.11560    0.54700    1.000
    H570     H        0.30320    0.10340    0.57480    1.000
    C202     C        0.37296    0.09864    0.62324    1.000
    H571     H        0.38590    0.07570    0.65190    1.000
    H572     H        0.40240    0.09960    0.59160    1.000
    H573     H        0.65340    0.84840    0.77380    1.000
    C203     C        0.46366    0.85994    0.74044    1.000
    H574     H        0.50120    0.84660    0.72820    1.000
    H575     H        0.45110    0.83090    0.76150    1.000
    H576     H        0.57120    0.87620    0.75160    1.000
    C204     C        0.44423    0.89217    0.69439    1.000
    H577     H        0.42210    0.87770    0.69690    1.000
    H578     H        0.47350    0.89090    0.66270    1.000
    N35      N        0.07858    0.34008    0.95776    1.000
    H579     H        0.88410    0.37510    0.93350    1.000
    H580     H        0.97900    0.35080    0.92960    1.000
    C205     C        0.08011    0.29433    0.95609    1.000
    H581     H        0.06980    0.27100    0.99080    1.000
    H582     H        0.05610    0.30410    0.93970    1.000
    C206     C        0.01982    0.49468    0.94388    1.000
    H583     H        0.99990    0.50490    0.92310    1.000
    H584     H        0.05490    0.47470    0.92850    1.000
    H585     H        0.01330    0.42850    0.06270    1.000
    C207     C        0.11511    0.32429    0.98291    1.000
    H586     H        0.11560    0.35480    0.98260    1.000
    H587     H        0.10340    0.30320    0.01860    1.000
    C208     C        0.09864    0.37296    0.90516    1.000
    H588     H        0.07570    0.38590    0.88650    1.000
    H589     H        0.09960    0.40240    0.90640    1.000
    H590     H        0.84840    0.65340    0.72440    1.000
    C209     C        0.85994    0.46366    0.93596    1.000
    H591     H        0.84660    0.50120    0.92400    1.000
    H592     H        0.83090    0.45110    0.95650    1.000
    H593     H        0.87620    0.57120    0.80100    1.000
    C210     C        0.89217    0.44423    0.96921    1.000
    H594     H        0.87770    0.42210    0.00330    1.000
    H595     H        0.89090    0.47350    0.97290    1.000
    N36      N        0.95776    0.62358    0.07858    1.000
    H596     H        0.93350    0.80730    0.88410    1.000
    H597     H        0.92960    0.74060    0.97900    1.000
    C211     C        0.95609    0.66947    0.08011    1.000
    H598     H        0.99080    0.66840    0.06980    1.000
    H599     H        0.93970    0.70010    0.05610    1.000
    C212     C        0.94388    0.54162    0.01982    1.000
    H600     H        0.92310    0.57210    0.99990    1.000
    H601     H        0.92850    0.54190    0.05490    1.000
    H602     H        0.06270    0.49550    0.01330    1.000
    C213     C        0.98291    0.57769    0.11511    1.000
    H603     H        0.98260    0.54700    0.11560    1.000
    H604     H        0.01860    0.57480    0.10340    1.000
    C214     C        0.90516    0.62324    0.09864    1.000
    H605     H        0.88650    0.65190    0.07570    1.000
    H606     H        0.90640    0.59160    0.09960    1.000
    H607     H        0.72440    0.77380    0.84840    1.000
    C215     C        0.93596    0.74044    0.85994    1.000
    H608     H        0.92400    0.72820    0.84660    1.000
    H609     H        0.95650    0.76150    0.83090    1.000
    H610     H        0.80100    0.75160    0.87620    1.000
    C216     C        0.96921    0.69439    0.89217    1.000
    H611     H        0.00330    0.69690    0.87770    1.000
    H612     H        0.97290    0.66270    0.89090    1.000
    N37      N        0.90992    0.62642    0.17142    1.000
    H613     H        0.87490    0.44270    0.36590    1.000
    H614     H        0.89920    0.50940    0.27100    1.000
    C217     C        0.95567    0.58053    0.16989    1.000
    H615     H        0.97900    0.58160    0.18020    1.000
    H616     H        0.94590    0.54990    0.19390    1.000
    C218     C        0.75532    0.70838    0.23018    1.000
    H617     H        0.74510    0.67790    0.25010    1.000
    H618     H        0.77530    0.70810    0.19510    1.000
    H619     H        0.82150    0.75450    0.23670    1.000
    C219     C        0.92571    0.67231    0.13489    1.000
    H620     H        0.89520    0.70300    0.13440    1.000
    H621     H        0.94680    0.67520    0.14660    1.000
    C220     C        0.87704    0.62676    0.15136    1.000
    H622     H        0.86410    0.59810    0.17430    1.000
    H623     H        0.84760    0.65840    0.15040    1.000
    H624     H        0.59660    0.47620    0.40160    1.000
    C221     C        0.78634    0.50956    0.39006    1.000
    H625     H        0.74880    0.52180    0.40340    1.000
    H626     H        0.79890    0.48850    0.41910    1.000
    H627     H        0.67880    0.49840    0.37380    1.000
    C222     C        0.80577    0.55561    0.35783    1.000
    H628     H        0.82790    0.55310    0.37230    1.000
    H629     H        0.77650    0.58730    0.35910    1.000
    N38      N        0.62642    0.90992    0.29224    1.000
    H630     H        0.44270    0.87490    0.31650    1.000
    H631     H        0.50940    0.89920    0.32040    1.000
    C223     C        0.58053    0.95567    0.29391    1.000
    H632     H        0.58160    0.97900    0.25920    1.000
    H633     H        0.54990    0.94590    0.31030    1.000
    C224     C        0.70838    0.75532    0.30612    1.000
    H634     H        0.67790    0.74510    0.32690    1.000
    H635     H        0.70810    0.77530    0.32150    1.000
    H636     H        0.75450    0.82150    0.18730    1.000
    C225     C        0.67231    0.92571    0.26709    1.000
    H637     H        0.70300    0.89520    0.26740    1.000
    H638     H        0.67520    0.94680    0.23140    1.000
    C226     C        0.62676    0.87704    0.34484    1.000
    H639     H        0.59810    0.86410    0.36350    1.000
    H640     H        0.65840    0.84760    0.34360    1.000
    H641     H        0.47620    0.59660    0.52560    1.000
    C227     C        0.50956    0.78634    0.31404    1.000
    H642     H        0.52180    0.74880    0.32600    1.000
    H643     H        0.48850    0.79890    0.29350    1.000
    H644     H        0.49840    0.67880    0.44900    1.000
    C228     C        0.55561    0.80577    0.28079    1.000
    H645     H        0.55310    0.82790    0.24670    1.000
    H646     H        0.58730    0.77650    0.27710    1.000
    N39      N        0.29224    0.17142    0.62642    1.000
    H647     H        0.31650    0.36590    0.44270    1.000
    H648     H        0.32040    0.27100    0.50940    1.000
    C229     C        0.29391    0.16989    0.58053    1.000
    H649     H        0.25920    0.18020    0.58160    1.000
    H650     H        0.31030    0.19390    0.54990    1.000
    C230     C        0.30612    0.23018    0.70838    1.000
    H651     H        0.32690    0.25010    0.67790    1.000
    H652     H        0.32150    0.19510    0.70810    1.000
    H653     H        0.18730    0.23670    0.75450    1.000
    C231     C        0.26709    0.13489    0.67231    1.000
    H654     H        0.26740    0.13440    0.70300    1.000
    H655     H        0.23140    0.14660    0.67520    1.000
    C232     C        0.34484    0.15136    0.62676    1.000
    H656     H        0.36350    0.17430    0.59810    1.000
    H657     H        0.34360    0.15040    0.65840    1.000
    H658     H        0.52560    0.40160    0.47620    1.000
    C233     C        0.31404    0.39006    0.50956    1.000
    H659     H        0.32600    0.40340    0.52180    1.000
    H660     H        0.29350    0.41910    0.48850    1.000
    H661     H        0.44900    0.37380    0.49840    1.000
    C234     C        0.28079    0.35783    0.55561    1.000
    H662     H        0.24670    0.37230    0.55310    1.000
    H663     H        0.27710    0.35910    0.58730    1.000
    N40      N        0.17142    0.29224    0.90992    1.000
    H664     H        0.36590    0.31650    0.87490    1.000
    H665     H        0.27100    0.32040    0.89920    1.000
    C235     C        0.16989    0.29391    0.95567    1.000
    H666     H        0.18020    0.25920    0.97900    1.000
    H667     H        0.19390    0.31030    0.94590    1.000
    C236     C        0.23018    0.30612    0.75532    1.000
    H668     H        0.25010    0.32690    0.74510    1.000
    H669     H        0.19510    0.32150    0.77530    1.000
    H670     H        0.23670    0.18730    0.82150    1.000
    C237     C        0.13489    0.26709    0.92571    1.000
    H671     H        0.13440    0.26740    0.89520    1.000
    H672     H        0.14660    0.23140    0.94680    1.000
    C238     C        0.15136    0.34484    0.87704    1.000
    H673     H        0.17430    0.36350    0.86410    1.000
    H674     H        0.15040    0.34360    0.84760    1.000
    H675     H        0.40160    0.52560    0.59660    1.000
    C239     C        0.39006    0.31404    0.78634    1.000
    H676     H        0.40340    0.32600    0.74880    1.000
    H677     H        0.41910    0.29350    0.79890    1.000
    H678     H        0.37380    0.44900    0.67880    1.000
    C240     C        0.35783    0.28079    0.80577    1.000
    H679     H        0.37230    0.24670    0.82790    1.000
    H680     H        0.35910    0.27710    0.77650    1.000
    N41      N        0.29224    0.90992    0.17142    1.000
    H681     H        0.31650    0.87490    0.36590    1.000
    H682     H        0.32040    0.89920    0.27100    1.000
    C241     C        0.29391    0.95567    0.16989    1.000
    H683     H        0.25920    0.97900    0.18020    1.000
    H684     H        0.31030    0.94590    0.19390    1.000
    C242     C        0.30612    0.75532    0.23018    1.000
    H685     H        0.32690    0.74510    0.25010    1.000
    H686     H        0.32150    0.77530    0.19510    1.000
    H687     H        0.18730    0.82150    0.23670    1.000
    C243     C        0.26709    0.92571    0.13489    1.000
    H688     H        0.26740    0.89520    0.13440    1.000
    H689     H        0.23140    0.94680    0.14660    1.000
    C244     C        0.34484    0.87704    0.15136    1.000
    H690     H        0.36350    0.86410    0.17430    1.000
    H691     H        0.34360    0.84760    0.15040    1.000
    H692     H        0.52560    0.59660    0.40160    1.000
    C245     C        0.31404    0.78634    0.39006    1.000
    H693     H        0.32600    0.74880    0.40340    1.000
    H694     H        0.29350    0.79890    0.41910    1.000
    H695     H        0.44900    0.67880    0.37380    1.000
    C246     C        0.28079    0.80577    0.35783    1.000
    H696     H        0.24670    0.82790    0.37230    1.000
    H697     H        0.27710    0.77650    0.35910    1.000
    N42      N        0.17142    0.62642    0.29224    1.000
    H698     H        0.36590    0.44270    0.31650    1.000
    H699     H        0.27100    0.50940    0.32040    1.000
    C247     C        0.16989    0.58053    0.29391    1.000
    H700     H        0.18020    0.58160    0.25920    1.000
    H701     H        0.19390    0.54990    0.31030    1.000
    C248     C        0.23018    0.70838    0.30612    1.000
    H702     H        0.25010    0.67790    0.32690    1.000
    H703     H        0.19510    0.70810    0.32150    1.000
    H704     H        0.23670    0.75450    0.18730    1.000
    C249     C        0.13489    0.67231    0.26709    1.000
    H705     H        0.13440    0.70300    0.26740    1.000
    H706     H        0.14660    0.67520    0.23140    1.000
    C250     C        0.15136    0.62676    0.34484    1.000
    H707     H        0.17430    0.59810    0.36350    1.000
    H708     H        0.15040    0.65840    0.34360    1.000
    H709     H        0.40160    0.47620    0.52560    1.000
    C251     C        0.39006    0.50956    0.31404    1.000
    H710     H        0.40340    0.52180    0.32600    1.000
    H711     H        0.41910    0.48850    0.29350    1.000
    H712     H        0.37380    0.49840    0.44900    1.000
    C252     C        0.35783    0.55561    0.28079    1.000
    H713     H        0.37230    0.55310    0.24670    1.000
    H714     H        0.35910    0.58730    0.27710    1.000
    N43      N        0.90992    0.29224    0.62642    1.000
    H715     H        0.87490    0.31650    0.44270    1.000
    H716     H        0.89920    0.32040    0.50940    1.000
    C253     C        0.95567    0.29391    0.58053    1.000
    H717     H        0.97900    0.25920    0.58160    1.000
    H718     H        0.94590    0.31030    0.54990    1.000
    C254     C        0.75532    0.30612    0.70838    1.000
    H719     H        0.74510    0.32690    0.67790    1.000
    H720     H        0.77530    0.32150    0.70810    1.000
    H721     H        0.82150    0.18730    0.75450    1.000
    C255     C        0.92571    0.26709    0.67231    1.000
    H722     H        0.89520    0.26740    0.70300    1.000
    H723     H        0.94680    0.23140    0.67520    1.000
    C256     C        0.87704    0.34484    0.62676    1.000
    H724     H        0.86410    0.36350    0.59810    1.000
    H725     H        0.84760    0.34360    0.65840    1.000
    H726     H        0.59660    0.52560    0.47620    1.000
    C257     C        0.78634    0.31404    0.50956    1.000
    H727     H        0.74880    0.32600    0.52180    1.000
    H728     H        0.79890    0.29350    0.48850    1.000
    H729     H        0.67880    0.44900    0.49840    1.000
    C258     C        0.80577    0.28079    0.55561    1.000
    H730     H        0.82790    0.24670    0.55310    1.000
    H731     H        0.77650    0.27710    0.58730    1.000
    N44      N        0.62642    0.17142    0.90992    1.000
    H732     H        0.44270    0.36590    0.87490    1.000
    H733     H        0.50940    0.27100    0.89920    1.000
    C259     C        0.58053    0.16989    0.95567    1.000
    H734     H        0.58160    0.18020    0.97900    1.000
    H735     H        0.54990    0.19390    0.94590    1.000
    C260     C        0.70838    0.23018    0.75532    1.000
    H736     H        0.67790    0.25010    0.74510    1.000
    H737     H        0.70810    0.19510    0.77530    1.000
    H738     H        0.75450    0.23670    0.82150    1.000
    C261     C        0.67231    0.13489    0.92571    1.000
    H739     H        0.70300    0.13440    0.89520    1.000
    H740     H        0.67520    0.14660    0.94680    1.000
    C262     C        0.62676    0.15136    0.87704    1.000
    H741     H        0.59810    0.17430    0.86410    1.000
    H742     H        0.65840    0.15040    0.84760    1.000
    H743     H        0.47620    0.40160    0.59660    1.000
    C263     C        0.50956    0.39006    0.78634    1.000
    H744     H        0.52180    0.40340    0.74880    1.000
    H745     H        0.48850    0.41910    0.79890    1.000
    H746     H        0.49840    0.37380    0.67880    1.000
    C264     C        0.55561    0.35783    0.80577    1.000
    H747     H        0.55310    0.37230    0.82790    1.000
    H748     H        0.58730    0.35910    0.77650    1.000
    N45      N        0.62642    0.29224    0.17142    1.000
    H749     H        0.44270    0.31650    0.36590    1.000
    H750     H        0.50940    0.32040    0.27100    1.000
    C265     C        0.58053    0.29391    0.16989    1.000
    H751     H        0.58160    0.25920    0.18020    1.000
    H752     H        0.54990    0.31030    0.19390    1.000
    C266     C        0.70838    0.30612    0.23018    1.000
    H753     H        0.67790    0.32690    0.25010    1.000
    H754     H        0.70810    0.32150    0.19510    1.000
    H755     H        0.75450    0.18730    0.23670    1.000
    C267     C        0.67231    0.26709    0.13489    1.000
    H756     H        0.70300    0.26740    0.13440    1.000
    H757     H        0.67520    0.23140    0.14660    1.000
    C268     C        0.62676    0.34484    0.15136    1.000
    H758     H        0.59810    0.36350    0.17430    1.000
    H759     H        0.65840    0.34360    0.15040    1.000
    H760     H        0.47620    0.52560    0.40160    1.000
    C269     C        0.50956    0.31404    0.39006    1.000
    H761     H        0.52180    0.32600    0.40340    1.000
    H762     H        0.48850    0.29350    0.41910    1.000
    H763     H        0.49840    0.44900    0.37380    1.000
    C270     C        0.55561    0.28079    0.35783    1.000
    H764     H        0.55310    0.24670    0.37230    1.000
    H765     H        0.58730    0.27710    0.35910    1.000
    N46      N        0.90992    0.17142    0.29224    1.000
    H766     H        0.87490    0.36590    0.31650    1.000
    H767     H        0.89920    0.27100    0.32040    1.000
    C271     C        0.95567    0.16989    0.29391    1.000
    H768     H        0.97900    0.18020    0.25920    1.000
    H769     H        0.94590    0.19390    0.31030    1.000
    C272     C        0.75532    0.23018    0.30612    1.000
    H770     H        0.74510    0.25010    0.32690    1.000
    H771     H        0.77530    0.19510    0.32150    1.000
    H772     H        0.82150    0.23670    0.18730    1.000
    C273     C        0.92571    0.13489    0.26709    1.000
    H773     H        0.89520    0.13440    0.26740    1.000
    H774     H        0.94680    0.14660    0.23140    1.000
    C274     C        0.87704    0.15136    0.34484    1.000
    H775     H        0.86410    0.17430    0.36350    1.000
    H776     H        0.84760    0.15040    0.34360    1.000
    H777     H        0.59660    0.40160    0.52560    1.000
    C275     C        0.78634    0.39006    0.31404    1.000
    H778     H        0.74880    0.40340    0.32600    1.000
    H779     H        0.79890    0.41910    0.29350    1.000
    H780     H        0.67880    0.37380    0.44900    1.000
    C276     C        0.80577    0.35783    0.28079    1.000
    H781     H        0.82790    0.37230    0.24670    1.000
    H782     H        0.77650    0.35910    0.27710    1.000
    N47      N        0.17142    0.90992    0.62642    1.000
    H783     H        0.36590    0.87490    0.44270    1.000
    H784     H        0.27100    0.89920    0.50940    1.000
    C277     C        0.16989    0.95567    0.58053    1.000
    H785     H        0.18020    0.97900    0.58160    1.000
    H786     H        0.19390    0.94590    0.54990    1.000
    C278     C        0.23018    0.75532    0.70838    1.000
    H787     H        0.25010    0.74510    0.67790    1.000
    H788     H        0.19510    0.77530    0.70810    1.000
    H789     H        0.23670    0.82150    0.75450    1.000
    C279     C        0.13489    0.92571    0.67231    1.000
    H790     H        0.13440    0.89520    0.70300    1.000
    H791     H        0.14660    0.94680    0.67520    1.000
    C280     C        0.15136    0.87704    0.62676    1.000
    H792     H        0.17430    0.86410    0.59810    1.000
    H793     H        0.15040    0.84760    0.65840    1.000
    H794     H        0.40160    0.59660    0.47620    1.000
    C281     C        0.39006    0.78634    0.50956    1.000
    H795     H        0.40340    0.74880    0.52180    1.000
    H796     H        0.41910    0.79890    0.48850    1.000
    H797     H        0.37380    0.67880    0.49840    1.000
    C282     C        0.35783    0.80577    0.55561    1.000
    H798     H        0.37230    0.82790    0.55310    1.000
    H799     H        0.35910    0.77650    0.58730    1.000
    N48      N        0.29224    0.62642    0.90992    1.000
    H800     H        0.31650    0.44270    0.87490    1.000
    H801     H        0.32040    0.50940    0.89920    1.000
    C283     C        0.29391    0.58053    0.95567    1.000
    H802     H        0.25920    0.58160    0.97900    1.000
    H803     H        0.31030    0.54990    0.94590    1.000
    C284     C        0.30612    0.70838    0.75532    1.000
    H804     H        0.32690    0.67790    0.74510    1.000
    H805     H        0.32150    0.70810    0.77530    1.000
    H806     H        0.18730    0.75450    0.82150    1.000
    C285     C        0.26709    0.67231    0.92571    1.000
    H807     H        0.26740    0.70300    0.89520    1.000
    H808     H        0.23140    0.67520    0.94680    1.000
    C286     C        0.34484    0.62676    0.87704    1.000
    H809     H        0.36350    0.59810    0.86410    1.000
    H810     H        0.34360    0.65840    0.84760    1.000
    H811     H        0.52560    0.47620    0.59660    1.000
    C287     C        0.31404    0.50956    0.78634    1.000
    H812     H        0.32600    0.52180    0.74880    1.000
    H813     H        0.29350    0.48850    0.79890    1.000
    H814     H        0.44900    0.49840    0.67880    1.000
    C288     C        0.28079    0.55561    0.80577    1.000
    H815     H        0.24670    0.55310    0.82790    1.000
    H816     H        0.27710    0.58730    0.77650    1.000
    Ag1      Ag       0.86063    0.63195    0.25371    1.000
    N49      N        0.78827    0.70655    0.25259    1.000
    N50      N        0.83468    0.55772    0.30380    1.000
    C289     C        0.86122    0.46338    0.33770    1.000
    N51      N        0.80443    0.47859    0.35849    1.000
    C290     C        0.87810    0.51026    0.30582    1.000
    C291     C        0.80093    0.75393    0.22257    1.000
    Ag2      Ag       0.63195    0.86063    0.25371    1.000
    N52      N        0.70655    0.78827    0.25259    1.000
    N53      N        0.55772    0.83468    0.30380    1.000
    C292     C        0.46338    0.86122    0.33770    1.000
    N54      N        0.47859    0.80443    0.35849    1.000
    C293     C        0.51026    0.87810    0.30582    1.000
    C294     C        0.75393    0.80093    0.22257    1.000
    Ag3      Ag       0.25371    0.25371    0.86063    1.000
    N55      N        0.25259    0.25259    0.78827    1.000
    N56      N        0.30380    0.30380    0.83468    1.000
    C295     C        0.33770    0.33770    0.86122    1.000
    N57      N        0.35849    0.35849    0.80443    1.000
    C296     C        0.30582    0.30582    0.87810    1.000
    C297     C        0.22257    0.22257    0.80093    1.000
    Ag4      Ag       0.25371    0.25371    0.63195    1.000
    N58      N        0.25259    0.25259    0.70655    1.000
    N59      N        0.30380    0.30380    0.55772    1.000
    C298     C        0.33770    0.33770    0.46338    1.000
    N60      N        0.35849    0.35849    0.47859    1.000
    C299     C        0.30582    0.30582    0.51026    1.000
    C300     C        0.22257    0.22257    0.75393    1.000
    Ag5      Ag       0.25371    0.86063    0.63195    1.000
    N61      N        0.25259    0.78827    0.70655    1.000
    N62      N        0.30380    0.83468    0.55772    1.000
    C301     C        0.33770    0.86122    0.46338    1.000
    N63      N        0.35849    0.80443    0.47859    1.000
    C302     C        0.30582    0.87810    0.51026    1.000
    C303     C        0.22257    0.80093    0.75393    1.000
    Ag6      Ag       0.25371    0.63195    0.86063    1.000
    N64      N        0.25259    0.70655    0.78827    1.000
    N65      N        0.30380    0.55772    0.83468    1.000
    C304     C        0.33770    0.46338    0.86122    1.000
    N66      N        0.35849    0.47859    0.80443    1.000
    C305     C        0.30582    0.51026    0.87810    1.000
    C306     C        0.22257    0.75393    0.80093    1.000
    Ag7      Ag       0.86063    0.25371    0.25371    1.000
    N67      N        0.78827    0.25259    0.25259    1.000
    N68      N        0.83468    0.30380    0.30380    1.000
    C307     C        0.86122    0.33770    0.33770    1.000
    N69      N        0.80443    0.35849    0.35849    1.000
    C308     C        0.87810    0.30582    0.30582    1.000
    C309     C        0.80093    0.22257    0.22257    1.000
    Ag8      Ag       0.63195    0.25371    0.25371    1.000
    N70      N        0.70655    0.25259    0.25259    1.000
    N71      N        0.55772    0.30380    0.30380    1.000
    C310     C        0.46338    0.33770    0.33770    1.000
    N72      N        0.47859    0.35849    0.35849    1.000
    C311     C        0.51026    0.30582    0.30582    1.000
    C312     C        0.75393    0.22257    0.22257    1.000
    Ag9      Ag       0.63195    0.25371    0.86063    1.000
    N73      N        0.70655    0.25259    0.78827    1.000
    N74      N        0.55772    0.30380    0.83468    1.000
    C313     C        0.46338    0.33770    0.86122    1.000
    N75      N        0.47859    0.35849    0.80443    1.000
    C314     C        0.51026    0.30582    0.87810    1.000
    C315     C        0.75393    0.22257    0.80093    1.000
    Ag10     Ag       0.86063    0.25371    0.63195    1.000
    N76      N        0.78827    0.25259    0.70655    1.000
    N77      N        0.83468    0.30380    0.55772    1.000
    C316     C        0.86122    0.33770    0.46338    1.000
    N78      N        0.80443    0.35849    0.47859    1.000
    C317     C        0.87810    0.30582    0.51026    1.000
    C318     C        0.80093    0.22257    0.75393    1.000
    Ag11     Ag       0.25371    0.86063    0.25371    1.000
    N79      N        0.25259    0.78827    0.25259    1.000
    N80      N        0.30380    0.83468    0.30380    1.000
    C319     C        0.33770    0.86122    0.33770    1.000
    N81      N        0.35849    0.80443    0.35849    1.000
    C320     C        0.30582    0.87810    0.30582    1.000
    C321     C        0.22257    0.80093    0.22257    1.000
    Ag12     Ag       0.25371    0.63195    0.25371    1.000
    N82      N        0.25259    0.70655    0.25259    1.000
    N83      N        0.30380    0.55772    0.30380    1.000
    C322     C        0.33770    0.46338    0.33770    1.000
    N84      N        0.35849    0.47859    0.35849    1.000
    C323     C        0.30582    0.51026    0.30582    1.000
    C324     C        0.22257    0.75393    0.22257    1.000
    Ag13     Ag       0.38937    0.61805    0.99629    1.000
    N85      N        0.46173    0.54345    0.99741    1.000
    N86      N        0.41532    0.69228    0.94620    1.000
    C325     C        0.38878    0.78662    0.91230    1.000
    N87      N        0.44557    0.77141    0.89151    1.000
    C326     C        0.37190    0.73974    0.94418    1.000
    C327     C        0.44907    0.49607    0.02743    1.000
    Ag14     Ag       0.61805    0.38937    0.99629    1.000
    N88      N        0.54345    0.46173    0.99741    1.000
    N89      N        0.69228    0.41532    0.94620    1.000
    C328     C        0.78662    0.38878    0.91230    1.000
    N90      N        0.77141    0.44557    0.89151    1.000
    C329     C        0.73974    0.37190    0.94418    1.000
    C330     C        0.49607    0.44907    0.02743    1.000
    Ag15     Ag       0.99629    0.99629    0.61805    1.000
    N91      N        0.99741    0.99741    0.54345    1.000
    N92      N        0.94620    0.94620    0.69228    1.000
    C331     C        0.91230    0.91230    0.78662    1.000
    N93      N        0.89151    0.89151    0.77141    1.000
    C332     C        0.94418    0.94418    0.73974    1.000
    C333     C        0.02743    0.02743    0.49607    1.000
    Ag16     Ag       0.99629    0.99629    0.38937    1.000
    N94      N        0.99741    0.99741    0.46173    1.000
    N95      N        0.94620    0.94620    0.41532    1.000
    C334     C        0.91230    0.91230    0.38878    1.000
    N96      N        0.89151    0.89151    0.44557    1.000
    C335     C        0.94418    0.94418    0.37190    1.000
    C336     C        0.02743    0.02743    0.44907    1.000
    Ag17     Ag       0.99629    0.38937    0.99629    1.000
    N97      N        0.99741    0.46173    0.99741    1.000
    N98      N        0.94620    0.41532    0.94620    1.000
    C337     C        0.91230    0.38878    0.91230    1.000
    N99      N        0.89151    0.44557    0.89151    1.000
    C338     C        0.94418    0.37190    0.94418    1.000
    C339     C        0.02743    0.44907    0.02743    1.000
    Ag18     Ag       0.99629    0.61805    0.99629    1.000
    N100     N        0.99741    0.54345    0.99741    1.000
    N101     N        0.94620    0.69228    0.94620    1.000
    C340     C        0.91230    0.78662    0.91230    1.000
    N102     N        0.89151    0.77141    0.89151    1.000
    C341     C        0.94418    0.73974    0.94418    1.000
    C342     C        0.02743    0.49607    0.02743    1.000
    Ag19     Ag       0.38937    0.99629    0.61805    1.000
    N103     N        0.46173    0.99741    0.54345    1.000
    N104     N        0.41532    0.94620    0.69228    1.000
    C343     C        0.38878    0.91230    0.78662    1.000
    N105     N        0.44557    0.89151    0.77141    1.000
    C344     C        0.37190    0.94418    0.73974    1.000
    C345     C        0.44907    0.02743    0.49607    1.000
    Ag20     Ag       0.61805    0.99629    0.38937    1.000
    N106     N        0.54345    0.99741    0.46173    1.000
    N107     N        0.69228    0.94620    0.41532    1.000
    C346     C        0.78662    0.91230    0.38878    1.000
    N108     N        0.77141    0.89151    0.44557    1.000
    C347     C        0.73974    0.94418    0.37190    1.000
    C348     C        0.49607    0.02743    0.44907    1.000
    Ag21     Ag       0.61805    0.99629    0.99629    1.000
    N109     N        0.54345    0.99741    0.99741    1.000
    N110     N        0.69228    0.94620    0.94620    1.000
    C349     C        0.78662    0.91230    0.91230    1.000
    N111     N        0.77141    0.89151    0.89151    1.000
    C350     C        0.73974    0.94418    0.94418    1.000
    C351     C        0.49607    0.02743    0.02743    1.000
    Ag22     Ag       0.38937    0.99629    0.99629    1.000
    N112     N        0.46173    0.99741    0.99741    1.000
    N113     N        0.41532    0.94620    0.94620    1.000
    C352     C        0.38878    0.91230    0.91230    1.000
    N114     N        0.44557    0.89151    0.89151    1.000
    C353     C        0.37190    0.94418    0.94418    1.000
    C354     C        0.44907    0.02743    0.02743    1.000
    Ag23     Ag       0.99629    0.38937    0.61805    1.000
    N115     N        0.99741    0.46173    0.54345    1.000
    N116     N        0.94620    0.41532    0.69228    1.000
    C355     C        0.91230    0.38878    0.78662    1.000
    N117     N        0.89151    0.44557    0.77141    1.000
    C356     C        0.94418    0.37190    0.73974    1.000
    C357     C        0.02743    0.44907    0.49607    1.000
    Ag24     Ag       0.99629    0.61805    0.38937    1.000
    N118     N        0.99741    0.54345    0.46173    1.000
    N119     N        0.94620    0.69228    0.41532    1.000
    C358     C        0.91230    0.78662    0.38878    1.000
    N120     N        0.89151    0.77141    0.44557    1.000
    C359     C        0.94418    0.73974    0.37190    1.000
    C360     C        0.02743    0.49607    0.44907    1.000
    N121     N        0.68816    0.43728    0.43728    1.000
    Ag25     Ag       0.77799    0.40734    0.40734    1.000
    N122     N        0.43728    0.68816    0.43728    1.000
    Ag26     Ag       0.40734    0.77799    0.40734    1.000
    N123     N        0.43728    0.43728    0.68816    1.000
    Ag27     Ag       0.40734    0.40734    0.77799    1.000
    N124     N        0.43728    0.43728    0.43728    1.000
    Ag28     Ag       0.40734    0.40734    0.40734    1.000
    N125     N        0.56184    0.81272    0.81272    1.000
    Ag29     Ag       0.47201    0.84266    0.84266    1.000
    N126     N        0.81272    0.56184    0.81272    1.000
    Ag30     Ag       0.84266    0.47201    0.84266    1.000
    N127     N        0.81272    0.81272    0.81272    1.000
    Ag31     Ag       0.84266    0.84266    0.84266    1.000
    N128     N        0.81272    0.81272    0.56184    1.000
    Ag32     Ag       0.84266    0.84266    0.47201    1.000
    N129     N        0.58949    0.47017    0.47017    1.000
    N130     N        0.47017    0.58949    0.47017    1.000
    N131     N        0.47017    0.47017    0.58949    1.000
    N132     N        0.47017    0.47017    0.47017    1.000
    N133     N        0.66051    0.77983    0.77983    1.000
    N134     N        0.77983    0.66051    0.77983    1.000
    N135     N        0.77983    0.77983    0.77983    1.000
    N136     N        0.77983    0.77983    0.66051    1.000
    Ag33     Ag       0.50000    0.50000    0.50000    1.000
    Ag34     Ag       0.75000    0.75000    0.75000    1.000
    C361     C        0.60910    0.48820    0.48820    1.000
    C362     C        0.48820    0.60910    0.41450    1.000
    C363     C        0.48820    0.41450    0.60910    1.000
    C364     C        0.41450    0.48820    0.48820    1.000
    C365     C        0.48820    0.60910    0.48820    1.000
    C366     C        0.41450    0.48820    0.60910    1.000
    C367     C        0.60910    0.48820    0.41450    1.000
    C368     C        0.48820    0.41450    0.48820    1.000
    C369     C        0.48820    0.48820    0.60910    1.000
    C370     C        0.60910    0.41450    0.48820    1.000
    C371     C        0.41450    0.60910    0.48820    1.000
    C372     C        0.48820    0.48820    0.41450    1.000
    C373     C        0.64090    0.76180    0.83550    1.000
    C374     C        0.76180    0.64090    0.76180    1.000
    C375     C        0.76180    0.83550    0.76180    1.000
    C376     C        0.83550    0.76180    0.64090    1.000
    C377     C        0.76180    0.64090    0.83550    1.000
    C378     C        0.83550    0.76180    0.76180    1.000
    C379     C        0.64090    0.76180    0.76180    1.000
    C380     C        0.76180    0.83550    0.64090    1.000
    C381     C        0.76180    0.76180    0.83550    1.000
    C382     C        0.64090    0.83550    0.76180    1.000
    C383     C        0.83550    0.64090    0.76180    1.000
    C384     C        0.76180    0.76180    0.64090    1.000
    C385     C        0.66654    0.46910    0.46910    1.000
    C386     C        0.46910    0.66654    0.39526    1.000
    C387     C        0.46910    0.39526    0.66654    1.000
    C388     C        0.39526    0.46910    0.46910    1.000
    C389     C        0.46910    0.66654    0.46910    1.000
    C390     C        0.39526    0.46910    0.66654    1.000
    C391     C        0.66654    0.46910    0.39526    1.000
    C392     C        0.46910    0.39526    0.46910    1.000
    C393     C        0.46910    0.46910    0.66654    1.000
    C394     C        0.66654    0.39526    0.46910    1.000
    C395     C        0.39526    0.66654    0.46910    1.000
    C396     C        0.46910    0.46910    0.39526    1.000
    C397     C        0.58346    0.78090    0.85474    1.000
    C398     C        0.78090    0.58346    0.78090    1.000
    C399     C        0.78090    0.85474    0.78090    1.000
    C400     C        0.85474    0.78090    0.58346    1.000
    C401     C        0.78090    0.58346    0.85474    1.000
    C402     C        0.85474    0.78090    0.78090    1.000
    C403     C        0.58346    0.78090    0.78090    1.000
    C404     C        0.78090    0.85474    0.58346    1.000
    C405     C        0.78090    0.78090    0.85474    1.000
    C406     C        0.58346    0.85474    0.78090    1.000
    C407     C        0.85474    0.58346    0.78090    1.000
    C408     C        0.78090    0.78090    0.58346    1.000
