# CIF file generated by openbabel 3.1.0, see https://openbabel.org
data_I
_chemical_name_common 'image0'
_cell_length_a 21.665
_cell_length_b 27.475
_cell_length_c 14.277
_cell_angle_alpha 90
_cell_angle_beta 103.073
_cell_angle_gamma 90
_space_group_name_H-M_alt 'P 1'
_space_group_name_Hall 'P 1'
loop_
    _symmetry_equiv_pos_as_xyz
    x,y,z
loop_
    _atom_site_label
    _atom_site_type_symbol
    _atom_site_fract_x
    _atom_site_fract_y
    _atom_site_fract_z
    _atom_site_occupancy
    Co1      Co       0.10911    0.17587    0.57897    1.000
    C1       C        0.67760    0.06850    0.06420    1.000
    C2       C        0.68910    0.11730    0.04980    1.000
    H1       H        0.66180    0.13490    0.99980    1.000
    C3       C        0.74050    0.14056    0.10870    1.000
    H2       H        0.74840    0.17400    0.09890    1.000
    C4       C        0.78050    0.11490    0.18200    1.000
    C5       C        0.76900    0.06600    0.19640    1.000
    H3       H        0.79630    0.04840    0.24650    1.000
    C6       C        0.71750    0.04277    0.13750    1.000
    H4       H        0.70970    0.00940    0.14730    1.000
    N1       N        0.92430    0.17960    0.27390    1.000
    C7       C        0.87360    0.16860    0.20160    1.000
    H5       H        0.86600    0.18040    0.13750    1.000
    N2       N        0.83550    0.13770    0.23730    1.000
    C8       C        0.86270    0.12960    0.33160    1.000
    H6       H        0.84630    0.10940    0.37420    1.000
    C9       C        0.91760    0.15550    0.35420    1.000
    H7       H        0.94620    0.15660    0.41530    1.000
    C10      C        0.24470    0.20210    0.59440    1.000
    H8       H        0.23210    0.23060    0.55740    1.000
    C11      C        0.30510    0.19120    0.63920    1.000
    H9       H        0.34180    0.21070    0.64260    1.000
    C12      C        0.24060    0.13370    0.66230    1.000
    H10      H        0.22500    0.10490    0.68560    1.000
    C13      C        0.35470    0.11960    0.73660    1.000
    C14      C        0.40840    0.14440    0.77930    1.000
    H11      H        0.41050    0.17860    0.77140    1.000
    C15      C        0.46000    0.11950    0.83420    1.000
    H12      H        0.49670    0.13720    0.86470    1.000
    C16      C        0.45880    0.06940    0.84540    1.000
    C17      C        0.40290    0.04570    0.80300    1.000
    H13      H        0.40000    0.01160    0.81220    1.000
    C18      C        0.35130    0.06980    0.74810    1.000
    H14      H        0.31400    0.05240    0.71870    1.000
    C19      C        0.51730    0.04230    0.89310    1.000
    C20      C        0.56950    0.06590    0.95210    1.000
    H15      H        0.56630    0.09960    0.96500    1.000
    C21      C        0.62530    0.04180    0.99200    1.000
    C22      C        0.63030    0.99280    0.96720    1.000
    H16      H        0.66950    0.97630    0.98870    1.000
    C23      C        0.57920    0.96790    0.91210    1.000
    C24      C        0.52220    0.99290    0.87620    1.000
    H17      H        0.48670    0.97580    0.83990    1.000
    C25      C        0.58340    0.91590    0.88390    1.000
    C26      C        0.63070    0.89950    0.84080    1.000
    H18      H        0.66230    0.92170    0.83090    1.000
    C27      C        0.63330    0.85140    0.81160    1.000
    H19      H        0.66640    0.84080    0.78280    1.000
    C28      C        0.58670    0.81920    0.82530    1.000
    C29      C        0.54030    0.83460    0.87170    1.000
    H20      H        0.50980    0.81210    0.88420    1.000
    C30      C        0.53850    0.88260    0.89980    1.000
    H21      H        0.50610    0.89310    0.93040    1.000
    C31      C        0.59910    0.75720    0.70940    1.000
    H22      H        0.60970    0.77920    0.66420    1.000
    C32      C        0.57810    0.69130    0.77770    1.000
    H23      H        0.57170    0.65790    0.78960    1.000
    C33      C        0.57210    0.72870    0.83860    1.000
    H24      H        0.56050    0.72670    0.89880    1.000
    C34      C        0.06370    0.09120    0.56230    1.000
    C35      C        0.03050    0.04370    0.52820    1.000
    C36      C        0.03360    0.00620    0.59440    1.000
    H25      H        0.05710    0.00990    0.65880    1.000
    C37      C        0.99860    0.03700    0.43590    1.000
    H26      H        0.99810    0.06240    0.39060    1.000
    N3       N        0.20490    0.16650    0.61010    1.000
    N4       N        0.30190    0.14570    0.67870    1.000
    N5       N        0.59460    0.70920    0.69720    1.000
    N6       N        0.58690    0.77030    0.79260    1.000
    O1       O        0.06100    0.12390    0.49890    1.000
    O2       O        0.09460    0.09650    0.64870    1.000
    O3       O        0.11130    0.23060    0.48650    1.000
    O4       O        0.03910    0.26560    0.35010    1.000
    O5       O        0.06410    0.30830    0.49990    1.000
    O6       O        0.00090    0.23510    0.48480    1.000
    S1       S        0.05220    0.26062    0.45725    1.000
    C38      C        0.68870    0.06250    0.02930    1.000
    C39      C        0.74810    0.05400    0.01060    1.000
    H27      H        0.75200    0.03350    0.95870    1.000
    C40      C        0.80160    0.07540    0.06790    1.000
    H28      H        0.84210    0.06960    0.05510    1.000
    C41      C        0.79580    0.10540    0.14380    1.000
    C42      C        0.73650    0.11390    0.16250    1.000
    H29      H        0.73250    0.13440    0.21440    1.000
    C43      C        0.68300    0.09250    0.10520    1.000
    H30      H        0.64240    0.09830    0.11800    1.000
    N7       N        0.93970    0.17230    0.24820    1.000
    C44      C        0.88330    0.16380    0.17520    1.000
    H31      H        0.87050    0.18140    0.11680    1.000
    N8       N        0.84970    0.12420    0.20600    1.000
    C45      C        0.88530    0.10810    0.29800    1.000
    H32      H        0.87390    0.08240    0.33520    1.000
    C46      C        0.94090    0.13780    0.32400    1.000
    H33      H        0.97300    0.13520    0.38150    1.000
    Co2      Co       0.60911    0.67587    0.57897    1.000
    C47      C        0.17760    0.56850    0.06420    1.000
    C48      C        0.18910    0.61730    0.04980    1.000
    H34      H        0.16180    0.63490    0.99980    1.000
    C49      C        0.24050    0.64056    0.10870    1.000
    H35      H        0.24840    0.67400    0.09890    1.000
    C50      C        0.28050    0.61490    0.18200    1.000
    C51      C        0.26900    0.56600    0.19640    1.000
    H36      H        0.29630    0.54840    0.24650    1.000
    C52      C        0.21750    0.54277    0.13750    1.000
    H37      H        0.20970    0.50940    0.14730    1.000
    N9       N        0.42430    0.67960    0.27390    1.000
    C53      C        0.37360    0.66860    0.20160    1.000
    H38      H        0.36600    0.68040    0.13750    1.000
    N10      N        0.33550    0.63770    0.23730    1.000
    C54      C        0.36270    0.62960    0.33160    1.000
    H39      H        0.34630    0.60940    0.37420    1.000
    C55      C        0.41760    0.65550    0.35420    1.000
    H40      H        0.44620    0.65660    0.41530    1.000
    C56      C        0.74470    0.70210    0.59440    1.000
    H41      H        0.73210    0.73060    0.55740    1.000
    C57      C        0.80510    0.69120    0.63920    1.000
    H42      H        0.84180    0.71070    0.64260    1.000
    C58      C        0.74060    0.63370    0.66230    1.000
    H43      H        0.72500    0.60490    0.68560    1.000
    C59      C        0.85470    0.61960    0.73660    1.000
    C60      C        0.90840    0.64440    0.77930    1.000
    H44      H        0.91050    0.67860    0.77140    1.000
    C61      C        0.96000    0.61950    0.83420    1.000
    H45      H        0.99670    0.63720    0.86470    1.000
    C62      C        0.95880    0.56940    0.84540    1.000
    C63      C        0.90290    0.54570    0.80300    1.000
    H46      H        0.90000    0.51160    0.81220    1.000
    C64      C        0.85130    0.56980    0.74810    1.000
    H47      H        0.81400    0.55240    0.71870    1.000
    C65      C        0.01730    0.54230    0.89310    1.000
    C66      C        0.06950    0.56590    0.95210    1.000
    H48      H        0.06630    0.59960    0.96500    1.000
    C67      C        0.12530    0.54180    0.99200    1.000
    C68      C        0.13030    0.49280    0.96720    1.000
    H49      H        0.16950    0.47630    0.98870    1.000
    C69      C        0.07920    0.46790    0.91210    1.000
    C70      C        0.02220    0.49290    0.87620    1.000
    H50      H        0.98670    0.47580    0.83990    1.000
    C71      C        0.08340    0.41590    0.88390    1.000
    C72      C        0.13070    0.39950    0.84080    1.000
    H51      H        0.16230    0.42170    0.83090    1.000
    C73      C        0.13330    0.35140    0.81160    1.000
    H52      H        0.16640    0.34080    0.78280    1.000
    C74      C        0.08670    0.31920    0.82530    1.000
    C75      C        0.04030    0.33460    0.87170    1.000
    H53      H        0.00980    0.31210    0.88420    1.000
    C76      C        0.03850    0.38260    0.89980    1.000
    H54      H        0.00610    0.39310    0.93040    1.000
    C77      C        0.09910    0.25720    0.70940    1.000
    H55      H        0.10970    0.27920    0.66420    1.000
    C78      C        0.07810    0.19130    0.77770    1.000
    H56      H        0.07170    0.15790    0.78960    1.000
    C79      C        0.07210    0.22870    0.83860    1.000
    H57      H        0.06050    0.22670    0.89880    1.000
    C80      C        0.56370    0.59120    0.56230    1.000
    C81      C        0.53050    0.54370    0.52820    1.000
    C82      C        0.53360    0.50620    0.59440    1.000
    H58      H        0.55710    0.50990    0.65880    1.000
    C83      C        0.49860    0.53700    0.43590    1.000
    H59      H        0.49810    0.56240    0.39060    1.000
    N11      N        0.70490    0.66650    0.61010    1.000
    N12      N        0.80190    0.64570    0.67870    1.000
    N13      N        0.09460    0.20920    0.69720    1.000
    N14      N        0.08690    0.27030    0.79260    1.000
    O7       O        0.56100    0.62390    0.49890    1.000
    O8       O        0.59460    0.59650    0.64870    1.000
    O9       O        0.61130    0.73060    0.48650    1.000
    O10      O        0.53910    0.76560    0.35010    1.000
    O11      O        0.56410    0.80830    0.49990    1.000
    O12      O        0.50090    0.73510    0.48480    1.000
    S2       S        0.55220    0.76062    0.45725    1.000
    C84      C        0.18870    0.56250    0.02930    1.000
    C85      C        0.24810    0.55400    0.01060    1.000
    H60      H        0.25200    0.53350    0.95870    1.000
    C86      C        0.30160    0.57540    0.06790    1.000
    H61      H        0.34210    0.56960    0.05510    1.000
    C87      C        0.29580    0.60540    0.14380    1.000
    C88      C        0.23650    0.61390    0.16250    1.000
    H62      H        0.23250    0.63440    0.21440    1.000
    C89      C        0.18300    0.59250    0.10520    1.000
    H63      H        0.14240    0.59830    0.11800    1.000
    N15      N        0.43970    0.67230    0.24820    1.000
    C90      C        0.38330    0.66380    0.17520    1.000
    H64      H        0.37050    0.68140    0.11680    1.000
    N16      N        0.34970    0.62420    0.20600    1.000
    C91      C        0.38530    0.60810    0.29800    1.000
    H65      H        0.37390    0.58240    0.33520    1.000
    C92      C        0.44090    0.63780    0.32400    1.000
    H66      H        0.47300    0.63520    0.38150    1.000
    Co3      Co       0.89089    0.17587    0.92103    1.000
    C93      C        0.32240    0.06850    0.43580    1.000
    C94      C        0.31090    0.11730    0.45020    1.000
    H67      H        0.33820    0.13490    0.50020    1.000
    C95      C        0.25950    0.14056    0.39130    1.000
    H68      H        0.25160    0.17400    0.40110    1.000
    C96      C        0.21950    0.11490    0.31800    1.000
    C97      C        0.23100    0.06600    0.30360    1.000
    H69      H        0.20370    0.04840    0.25350    1.000
    C98      C        0.28250    0.04277    0.36250    1.000
    H70      H        0.29030    0.00940    0.35270    1.000
    N17      N        0.07570    0.17960    0.22610    1.000
    C99      C        0.12640    0.16860    0.29840    1.000
    H71      H        0.13400    0.18040    0.36250    1.000
    N18      N        0.16450    0.13770    0.26270    1.000
    C100     C        0.13730    0.12960    0.16840    1.000
    H72      H        0.15370    0.10940    0.12580    1.000
    C101     C        0.08240    0.15550    0.14580    1.000
    H73      H        0.05380    0.15660    0.08470    1.000
    C102     C        0.75530    0.20210    0.90560    1.000
    H74      H        0.76790    0.23060    0.94260    1.000
    C103     C        0.69490    0.19120    0.86080    1.000
    H75      H        0.65820    0.21070    0.85740    1.000
    C104     C        0.75940    0.13370    0.83770    1.000
    H76      H        0.77500    0.10490    0.81440    1.000
    C105     C        0.64530    0.11960    0.76340    1.000
    C106     C        0.59160    0.14440    0.72070    1.000
    H77      H        0.58950    0.17860    0.72860    1.000
    C107     C        0.54000    0.11950    0.66580    1.000
    H78      H        0.50330    0.13720    0.63530    1.000
    C108     C        0.54120    0.06940    0.65460    1.000
    C109     C        0.59710    0.04570    0.69700    1.000
    H79      H        0.60000    0.01160    0.68780    1.000
    C110     C        0.64870    0.06980    0.75190    1.000
    H80      H        0.68600    0.05240    0.78130    1.000
    C111     C        0.48270    0.04230    0.60690    1.000
    C112     C        0.43050    0.06590    0.54790    1.000
    H81      H        0.43370    0.09960    0.53500    1.000
    C113     C        0.37470    0.04180    0.50800    1.000
    C114     C        0.36970    0.99280    0.53280    1.000
    H82      H        0.33050    0.97630    0.51130    1.000
    C115     C        0.42080    0.96790    0.58790    1.000
    C116     C        0.47780    0.99290    0.62380    1.000
    H83      H        0.51330    0.97580    0.66010    1.000
    C117     C        0.41660    0.91590    0.61610    1.000
    C118     C        0.36930    0.89950    0.65920    1.000
    H84      H        0.33770    0.92170    0.66910    1.000
    C119     C        0.36670    0.85140    0.68840    1.000
    H85      H        0.33360    0.84080    0.71720    1.000
    C120     C        0.41330    0.81920    0.67470    1.000
    C121     C        0.45970    0.83460    0.62830    1.000
    H86      H        0.49020    0.81210    0.61580    1.000
    C122     C        0.46150    0.88260    0.60020    1.000
    H87      H        0.49390    0.89310    0.56960    1.000
    C123     C        0.40090    0.75720    0.79060    1.000
    H88      H        0.39030    0.77920    0.83580    1.000
    C124     C        0.42190    0.69130    0.72230    1.000
    H89      H        0.42830    0.65790    0.71040    1.000
    C125     C        0.42790    0.72870    0.66140    1.000
    H90      H        0.43950    0.72670    0.60120    1.000
    C126     C        0.93630    0.09120    0.93770    1.000
    C127     C        0.96950    0.04370    0.97180    1.000
    C128     C        0.96640    0.00620    0.90560    1.000
    H91      H        0.94290    0.00990    0.84120    1.000
    C129     C        0.00140    0.03700    0.06410    1.000
    H92      H        0.00190    0.06240    0.10940    1.000
    N19      N        0.79510    0.16650    0.88990    1.000
    N20      N        0.69810    0.14570    0.82130    1.000
    N21      N        0.40540    0.70920    0.80280    1.000
    N22      N        0.41310    0.77030    0.70740    1.000
    O13      O        0.93900    0.12390    0.00110    1.000
    O14      O        0.90540    0.09650    0.85130    1.000
    O15      O        0.88870    0.23060    0.01350    1.000
    O16      O        0.96090    0.26560    0.14990    1.000
    O17      O        0.93590    0.30830    0.00010    1.000
    O18      O        0.99910    0.23510    0.01520    1.000
    S3       S        0.94780    0.26062    0.04275    1.000
    C130     C        0.31130    0.06250    0.47070    1.000
    C131     C        0.25190    0.05400    0.48940    1.000
    H93      H        0.24800    0.03350    0.54130    1.000
    C132     C        0.19840    0.07540    0.43210    1.000
    H94      H        0.15790    0.06960    0.44490    1.000
    C133     C        0.20420    0.10540    0.35620    1.000
    C134     C        0.26350    0.11390    0.33750    1.000
    H95      H        0.26750    0.13440    0.28560    1.000
    C135     C        0.31700    0.09250    0.39480    1.000
    H96      H        0.35760    0.09830    0.38200    1.000
    N23      N        0.06030    0.17230    0.25180    1.000
    C136     C        0.11670    0.16380    0.32480    1.000
    H97      H        0.12950    0.18140    0.38320    1.000
    N24      N        0.15030    0.12420    0.29400    1.000
    C137     C        0.11470    0.10810    0.20200    1.000
    H98      H        0.12610    0.08240    0.16480    1.000
    C138     C        0.05910    0.13780    0.17600    1.000
    H99      H        0.02700    0.13520    0.11850    1.000
    Co4      Co       0.39089    0.67587    0.92103    1.000
    C139     C        0.82240    0.56850    0.43580    1.000
    C140     C        0.81090    0.61730    0.45020    1.000
    H100     H        0.83820    0.63490    0.50020    1.000
    C141     C        0.75950    0.64056    0.39130    1.000
    H101     H        0.75160    0.67400    0.40110    1.000
    C142     C        0.71950    0.61490    0.31800    1.000
    C143     C        0.73100    0.56600    0.30360    1.000
    H102     H        0.70370    0.54840    0.25350    1.000
    C144     C        0.78250    0.54277    0.36250    1.000
    H103     H        0.79030    0.50940    0.35270    1.000
    N25      N        0.57570    0.67960    0.22610    1.000
    C145     C        0.62640    0.66860    0.29840    1.000
    H104     H        0.63400    0.68040    0.36250    1.000
    N26      N        0.66450    0.63770    0.26270    1.000
    C146     C        0.63730    0.62960    0.16840    1.000
    H105     H        0.65370    0.60940    0.12580    1.000
    C147     C        0.58240    0.65550    0.14580    1.000
    H106     H        0.55380    0.65660    0.08470    1.000
    C148     C        0.25530    0.70210    0.90560    1.000
    H107     H        0.26790    0.73060    0.94260    1.000
    C149     C        0.19490    0.69120    0.86080    1.000
    H108     H        0.15820    0.71070    0.85740    1.000
    C150     C        0.25940    0.63370    0.83770    1.000
    H109     H        0.27500    0.60490    0.81440    1.000
    C151     C        0.14530    0.61960    0.76340    1.000
    C152     C        0.09160    0.64440    0.72070    1.000
    H110     H        0.08950    0.67860    0.72860    1.000
    C153     C        0.04000    0.61950    0.66580    1.000
    H111     H        0.00330    0.63720    0.63530    1.000
    C154     C        0.04120    0.56940    0.65460    1.000
    C155     C        0.09710    0.54570    0.69700    1.000
    H112     H        0.10000    0.51160    0.68780    1.000
    C156     C        0.14870    0.56980    0.75190    1.000
    H113     H        0.18600    0.55240    0.78130    1.000
    C157     C        0.98270    0.54230    0.60690    1.000
    C158     C        0.93050    0.56590    0.54790    1.000
    H114     H        0.93370    0.59960    0.53500    1.000
    C159     C        0.87470    0.54180    0.50800    1.000
    C160     C        0.86970    0.49280    0.53280    1.000
    H115     H        0.83050    0.47630    0.51130    1.000
    C161     C        0.92080    0.46790    0.58790    1.000
    C162     C        0.97780    0.49290    0.62380    1.000
    H116     H        0.01330    0.47580    0.66010    1.000
    C163     C        0.91660    0.41590    0.61610    1.000
    C164     C        0.86930    0.39950    0.65920    1.000
    H117     H        0.83770    0.42170    0.66910    1.000
    C165     C        0.86670    0.35140    0.68840    1.000
    H118     H        0.83360    0.34080    0.71720    1.000
    C166     C        0.91330    0.31920    0.67470    1.000
    C167     C        0.95970    0.33460    0.62830    1.000
    H119     H        0.99020    0.31210    0.61580    1.000
    C168     C        0.96150    0.38260    0.60020    1.000
    H120     H        0.99390    0.39310    0.56960    1.000
    C169     C        0.90090    0.25720    0.79060    1.000
    H121     H        0.89030    0.27920    0.83580    1.000
    C170     C        0.92190    0.19130    0.72230    1.000
    H122     H        0.92830    0.15790    0.71040    1.000
    C171     C        0.92790    0.22870    0.66140    1.000
    H123     H        0.93950    0.22670    0.60120    1.000
    C172     C        0.43630    0.59120    0.93770    1.000
    C173     C        0.46950    0.54370    0.97180    1.000
    C174     C        0.46640    0.50620    0.90560    1.000
    H124     H        0.44290    0.50990    0.84120    1.000
    C175     C        0.50140    0.53700    0.06410    1.000
    H125     H        0.50190    0.56240    0.10940    1.000
    N27      N        0.29510    0.66650    0.88990    1.000
    N28      N        0.19810    0.64570    0.82130    1.000
    N29      N        0.90540    0.20920    0.80280    1.000
    N30      N        0.91310    0.27030    0.70740    1.000
    O19      O        0.43900    0.62390    0.00110    1.000
    O20      O        0.40540    0.59650    0.85130    1.000
    O21      O        0.38870    0.73060    0.01350    1.000
    O22      O        0.46090    0.76560    0.14990    1.000
    O23      O        0.43590    0.80830    0.00010    1.000
    O24      O        0.49910    0.73510    0.01520    1.000
    S4       S        0.44780    0.76062    0.04275    1.000
    C176     C        0.81130    0.56250    0.47070    1.000
    C177     C        0.75190    0.55400    0.48940    1.000
    H126     H        0.74800    0.53350    0.54130    1.000
    C178     C        0.69840    0.57540    0.43210    1.000
    H127     H        0.65790    0.56960    0.44490    1.000
    C179     C        0.70420    0.60540    0.35620    1.000
    C180     C        0.76350    0.61390    0.33750    1.000
    H128     H        0.76750    0.63440    0.28560    1.000
    C181     C        0.81700    0.59250    0.39480    1.000
    H129     H        0.85760    0.59830    0.38200    1.000
    N31      N        0.56030    0.67230    0.25180    1.000
    C182     C        0.61670    0.66380    0.32480    1.000
    H130     H        0.62950    0.68140    0.38320    1.000
    N32      N        0.65030    0.62420    0.29400    1.000
    C183     C        0.61470    0.60810    0.20200    1.000
    H131     H        0.62610    0.58240    0.16480    1.000
    C184     C        0.55910    0.63780    0.17600    1.000
    H132     H        0.52700    0.63520    0.11850    1.000
    Co5      Co       0.89089    0.82413    0.42103    1.000
    C185     C        0.32240    0.93150    0.93580    1.000
    C186     C        0.31090    0.88270    0.95020    1.000
    H133     H        0.33820    0.86510    0.00020    1.000
    C187     C        0.25950    0.85944    0.89130    1.000
    H134     H        0.25160    0.82600    0.90110    1.000
    C188     C        0.21950    0.88510    0.81800    1.000
    C189     C        0.23100    0.93400    0.80360    1.000
    H135     H        0.20370    0.95160    0.75350    1.000
    C190     C        0.28250    0.95723    0.86250    1.000
    H136     H        0.29030    0.99060    0.85270    1.000
    N33      N        0.07570    0.82040    0.72610    1.000
    C191     C        0.12640    0.83140    0.79840    1.000
    H137     H        0.13400    0.81960    0.86250    1.000
    N34      N        0.16450    0.86230    0.76270    1.000
    C192     C        0.13730    0.87040    0.66840    1.000
    H138     H        0.15370    0.89060    0.62580    1.000
    C193     C        0.08240    0.84450    0.64580    1.000
    H139     H        0.05380    0.84340    0.58470    1.000
    C194     C        0.75530    0.79790    0.40560    1.000
    H140     H        0.76790    0.76940    0.44260    1.000
    C195     C        0.69490    0.80880    0.36080    1.000
    H141     H        0.65820    0.78930    0.35740    1.000
    C196     C        0.75940    0.86630    0.33770    1.000
    H142     H        0.77500    0.89510    0.31440    1.000
    C197     C        0.64530    0.88040    0.26340    1.000
    C198     C        0.59160    0.85560    0.22070    1.000
    H143     H        0.58950    0.82140    0.22860    1.000
    C199     C        0.54000    0.88050    0.16580    1.000
    H144     H        0.50330    0.86280    0.13530    1.000
    C200     C        0.54120    0.93060    0.15460    1.000
    C201     C        0.59710    0.95430    0.19700    1.000
    H145     H        0.60000    0.98840    0.18780    1.000
    C202     C        0.64870    0.93020    0.25190    1.000
    H146     H        0.68600    0.94760    0.28130    1.000
    C203     C        0.48270    0.95770    0.10690    1.000
    C204     C        0.43050    0.93410    0.04790    1.000
    H147     H        0.43370    0.90040    0.03500    1.000
    C205     C        0.37470    0.95820    0.00800    1.000
    C206     C        0.36970    0.00720    0.03280    1.000
    H148     H        0.33050    0.02370    0.01130    1.000
    C207     C        0.42080    0.03210    0.08790    1.000
    C208     C        0.47780    0.00710    0.12380    1.000
    H149     H        0.51330    0.02420    0.16010    1.000
    C209     C        0.41660    0.08410    0.11610    1.000
    C210     C        0.36930    0.10050    0.15920    1.000
    H150     H        0.33770    0.07830    0.16910    1.000
    C211     C        0.36670    0.14860    0.18840    1.000
    H151     H        0.33360    0.15920    0.21720    1.000
    C212     C        0.41330    0.18080    0.17470    1.000
    C213     C        0.45970    0.16540    0.12830    1.000
    H152     H        0.49020    0.18790    0.11580    1.000
    C214     C        0.46150    0.11740    0.10020    1.000
    H153     H        0.49390    0.10690    0.06960    1.000
    C215     C        0.40090    0.24280    0.29060    1.000
    H154     H        0.39030    0.22080    0.33580    1.000
    C216     C        0.42190    0.30870    0.22230    1.000
    H155     H        0.42830    0.34210    0.21040    1.000
    C217     C        0.42790    0.27130    0.16140    1.000
    H156     H        0.43950    0.27330    0.10120    1.000
    C218     C        0.93630    0.90880    0.43770    1.000
    C219     C        0.96950    0.95630    0.47180    1.000
    C220     C        0.96640    0.99380    0.40560    1.000
    H157     H        0.94290    0.99010    0.34120    1.000
    C221     C        0.00140    0.96300    0.56410    1.000
    H158     H        0.00190    0.93760    0.60940    1.000
    N35      N        0.79510    0.83350    0.38990    1.000
    N36      N        0.69810    0.85430    0.32130    1.000
    N37      N        0.40540    0.29080    0.30280    1.000
    N38      N        0.41310    0.22970    0.20740    1.000
    O25      O        0.93900    0.87610    0.50110    1.000
    O26      O        0.90540    0.90350    0.35130    1.000
    O27      O        0.88870    0.76940    0.51350    1.000
    O28      O        0.96090    0.73440    0.64990    1.000
    O29      O        0.93590    0.69170    0.50010    1.000
    O30      O        0.99910    0.76490    0.51520    1.000
    S5       S        0.94780    0.73938    0.54275    1.000
    C222     C        0.31130    0.93750    0.97070    1.000
    C223     C        0.25190    0.94600    0.98940    1.000
    H159     H        0.24800    0.96650    0.04130    1.000
    C224     C        0.19840    0.92460    0.93210    1.000
    H160     H        0.15790    0.93040    0.94490    1.000
    C225     C        0.20420    0.89460    0.85620    1.000
    C226     C        0.26350    0.88610    0.83750    1.000
    H161     H        0.26750    0.86560    0.78560    1.000
    C227     C        0.31700    0.90750    0.89480    1.000
    H162     H        0.35760    0.90170    0.88200    1.000
    N39      N        0.06030    0.82770    0.75180    1.000
    C228     C        0.11670    0.83620    0.82480    1.000
    H163     H        0.12950    0.81860    0.88320    1.000
    N40      N        0.15030    0.87580    0.79400    1.000
    C229     C        0.11470    0.89190    0.70200    1.000
    H164     H        0.12610    0.91760    0.66480    1.000
    C230     C        0.05910    0.86220    0.67600    1.000
    H165     H        0.02700    0.86480    0.61850    1.000
    Co6      Co       0.39089    0.32413    0.42103    1.000
    C231     C        0.82240    0.43150    0.93580    1.000
    C232     C        0.81090    0.38270    0.95020    1.000
    H166     H        0.83820    0.36510    0.00020    1.000
    C233     C        0.75950    0.35944    0.89130    1.000
    H167     H        0.75160    0.32600    0.90110    1.000
    C234     C        0.71950    0.38510    0.81800    1.000
    C235     C        0.73100    0.43400    0.80360    1.000
    H168     H        0.70370    0.45160    0.75350    1.000
    C236     C        0.78250    0.45723    0.86250    1.000
    H169     H        0.79030    0.49060    0.85270    1.000
    N41      N        0.57570    0.32040    0.72610    1.000
    C237     C        0.62640    0.33140    0.79840    1.000
    H170     H        0.63400    0.31960    0.86250    1.000
    N42      N        0.66450    0.36230    0.76270    1.000
    C238     C        0.63730    0.37040    0.66840    1.000
    H171     H        0.65370    0.39060    0.62580    1.000
    C239     C        0.58240    0.34450    0.64580    1.000
    H172     H        0.55380    0.34340    0.58470    1.000
    C240     C        0.25530    0.29790    0.40560    1.000
    H173     H        0.26790    0.26940    0.44260    1.000
    C241     C        0.19490    0.30880    0.36080    1.000
    H174     H        0.15820    0.28930    0.35740    1.000
    C242     C        0.25940    0.36630    0.33770    1.000
    H175     H        0.27500    0.39510    0.31440    1.000
    C243     C        0.14530    0.38040    0.26340    1.000
    C244     C        0.09160    0.35560    0.22070    1.000
    H176     H        0.08950    0.32140    0.22860    1.000
    C245     C        0.04000    0.38050    0.16580    1.000
    H177     H        0.00330    0.36280    0.13530    1.000
    C246     C        0.04120    0.43060    0.15460    1.000
    C247     C        0.09710    0.45430    0.19700    1.000
    H178     H        0.10000    0.48840    0.18780    1.000
    C248     C        0.14870    0.43020    0.25190    1.000
    H179     H        0.18600    0.44760    0.28130    1.000
    C249     C        0.98270    0.45770    0.10690    1.000
    C250     C        0.93050    0.43410    0.04790    1.000
    H180     H        0.93370    0.40040    0.03500    1.000
    C251     C        0.87470    0.45820    0.00800    1.000
    C252     C        0.86970    0.50720    0.03280    1.000
    H181     H        0.83050    0.52370    0.01130    1.000
    C253     C        0.92080    0.53210    0.08790    1.000
    C254     C        0.97780    0.50710    0.12380    1.000
    H182     H        0.01330    0.52420    0.16010    1.000
    C255     C        0.91660    0.58410    0.11610    1.000
    C256     C        0.86930    0.60050    0.15920    1.000
    H183     H        0.83770    0.57830    0.16910    1.000
    C257     C        0.86670    0.64860    0.18840    1.000
    H184     H        0.83360    0.65920    0.21720    1.000
    C258     C        0.91330    0.68080    0.17470    1.000
    C259     C        0.95970    0.66540    0.12830    1.000
    H185     H        0.99020    0.68790    0.11580    1.000
    C260     C        0.96150    0.61740    0.10020    1.000
    H186     H        0.99390    0.60690    0.06960    1.000
    C261     C        0.90090    0.74280    0.29060    1.000
    H187     H        0.89030    0.72080    0.33580    1.000
    C262     C        0.92190    0.80870    0.22230    1.000
    H188     H        0.92830    0.84210    0.21040    1.000
    C263     C        0.92790    0.77130    0.16140    1.000
    H189     H        0.93950    0.77330    0.10120    1.000
    C264     C        0.43630    0.40880    0.43770    1.000
    C265     C        0.46950    0.45630    0.47180    1.000
    C266     C        0.46640    0.49380    0.40560    1.000
    H190     H        0.44290    0.49010    0.34120    1.000
    C267     C        0.50140    0.46300    0.56410    1.000
    H191     H        0.50190    0.43760    0.60940    1.000
    N43      N        0.29510    0.33350    0.38990    1.000
    N44      N        0.19810    0.35430    0.32130    1.000
    N45      N        0.90540    0.79080    0.30280    1.000
    N46      N        0.91310    0.72970    0.20740    1.000
    O31      O        0.43900    0.37610    0.50110    1.000
    O32      O        0.40540    0.40350    0.35130    1.000
    O33      O        0.38870    0.26940    0.51350    1.000
    O34      O        0.46090    0.23440    0.64990    1.000
    O35      O        0.43590    0.19170    0.50010    1.000
    O36      O        0.49910    0.26490    0.51520    1.000
    S6       S        0.44780    0.23938    0.54275    1.000
    C268     C        0.81130    0.43750    0.97070    1.000
    C269     C        0.75190    0.44600    0.98940    1.000
    H192     H        0.74800    0.46650    0.04130    1.000
    C270     C        0.69840    0.42460    0.93210    1.000
    H193     H        0.65790    0.43040    0.94490    1.000
    C271     C        0.70420    0.39460    0.85620    1.000
    C272     C        0.76350    0.38610    0.83750    1.000
    H194     H        0.76750    0.36560    0.78560    1.000
    C273     C        0.81700    0.40750    0.89480    1.000
    H195     H        0.85760    0.40170    0.88200    1.000
    N47      N        0.56030    0.32770    0.75180    1.000
    C274     C        0.61670    0.33620    0.82480    1.000
    H196     H        0.62950    0.31860    0.88320    1.000
    N48      N        0.65030    0.37580    0.79400    1.000
    C275     C        0.61470    0.39190    0.70200    1.000
    H197     H        0.62610    0.41760    0.66480    1.000
    C276     C        0.55910    0.36220    0.67600    1.000
    H198     H        0.52700    0.36480    0.61850    1.000
    Co7      Co       0.10911    0.82413    0.07897    1.000
    C277     C        0.67760    0.93150    0.56420    1.000
    C278     C        0.68910    0.88270    0.54980    1.000
    H199     H        0.66180    0.86510    0.49980    1.000
    C279     C        0.74050    0.85944    0.60870    1.000
    H200     H        0.74840    0.82600    0.59890    1.000
    C280     C        0.78050    0.88510    0.68200    1.000
    C281     C        0.76900    0.93400    0.69640    1.000
    H201     H        0.79630    0.95160    0.74650    1.000
    C282     C        0.71750    0.95723    0.63750    1.000
    H202     H        0.70970    0.99060    0.64730    1.000
    N49      N        0.92430    0.82040    0.77390    1.000
    C283     C        0.87360    0.83140    0.70160    1.000
    H203     H        0.86600    0.81960    0.63750    1.000
    N50      N        0.83550    0.86230    0.73730    1.000
    C284     C        0.86270    0.87040    0.83160    1.000
    H204     H        0.84630    0.89060    0.87420    1.000
    C285     C        0.91760    0.84450    0.85420    1.000
    H205     H        0.94620    0.84340    0.91530    1.000
    C286     C        0.24470    0.79790    0.09440    1.000
    H206     H        0.23210    0.76940    0.05740    1.000
    C287     C        0.30510    0.80880    0.13920    1.000
    H207     H        0.34180    0.78930    0.14260    1.000
    C288     C        0.24060    0.86630    0.16230    1.000
    H208     H        0.22500    0.89510    0.18560    1.000
    C289     C        0.35470    0.88040    0.23660    1.000
    C290     C        0.40840    0.85560    0.27930    1.000
    H209     H        0.41050    0.82140    0.27140    1.000
    C291     C        0.46000    0.88050    0.33420    1.000
    H210     H        0.49670    0.86280    0.36470    1.000
    C292     C        0.45880    0.93060    0.34540    1.000
    C293     C        0.40290    0.95430    0.30300    1.000
    H211     H        0.40000    0.98840    0.31220    1.000
    C294     C        0.35130    0.93020    0.24810    1.000
    H212     H        0.31400    0.94760    0.21870    1.000
    C295     C        0.51730    0.95770    0.39310    1.000
    C296     C        0.56950    0.93410    0.45210    1.000
    H213     H        0.56630    0.90040    0.46500    1.000
    C297     C        0.62530    0.95820    0.49200    1.000
    C298     C        0.63030    0.00720    0.46720    1.000
    H214     H        0.66950    0.02370    0.48870    1.000
    C299     C        0.57920    0.03210    0.41210    1.000
    C300     C        0.52220    0.00710    0.37620    1.000
    H215     H        0.48670    0.02420    0.33990    1.000
    C301     C        0.58340    0.08410    0.38390    1.000
    C302     C        0.63070    0.10050    0.34080    1.000
    H216     H        0.66230    0.07830    0.33090    1.000
    C303     C        0.63330    0.14860    0.31160    1.000
    H217     H        0.66640    0.15920    0.28280    1.000
    C304     C        0.58670    0.18080    0.32530    1.000
    C305     C        0.54030    0.16540    0.37170    1.000
    H218     H        0.50980    0.18790    0.38420    1.000
    C306     C        0.53850    0.11740    0.39980    1.000
    H219     H        0.50610    0.10690    0.43040    1.000
    C307     C        0.59910    0.24280    0.20940    1.000
    H220     H        0.60970    0.22080    0.16420    1.000
    C308     C        0.57810    0.30870    0.27770    1.000
    H221     H        0.57170    0.34210    0.28960    1.000
    C309     C        0.57210    0.27130    0.33860    1.000
    H222     H        0.56050    0.27330    0.39880    1.000
    C310     C        0.06370    0.90880    0.06230    1.000
    C311     C        0.03050    0.95630    0.02820    1.000
    C312     C        0.03360    0.99380    0.09440    1.000
    H223     H        0.05710    0.99010    0.15880    1.000
    C313     C        0.99860    0.96300    0.93590    1.000
    H224     H        0.99810    0.93760    0.89060    1.000
    N51      N        0.20490    0.83350    0.11010    1.000
    N52      N        0.30190    0.85430    0.17870    1.000
    N53      N        0.59460    0.29080    0.19720    1.000
    N54      N        0.58690    0.22970    0.29260    1.000
    O37      O        0.06100    0.87610    0.99890    1.000
    O38      O        0.09460    0.90350    0.14870    1.000
    O39      O        0.11130    0.76940    0.98650    1.000
    O40      O        0.03910    0.73440    0.85010    1.000
    O41      O        0.06410    0.69170    0.99990    1.000
    O42      O        0.00090    0.76490    0.98480    1.000
    S7       S        0.05220    0.73938    0.95725    1.000
    C314     C        0.68870    0.93750    0.52930    1.000
    C315     C        0.74810    0.94600    0.51060    1.000
    H225     H        0.75200    0.96650    0.45870    1.000
    C316     C        0.80160    0.92460    0.56790    1.000
    H226     H        0.84210    0.93040    0.55510    1.000
    C317     C        0.79580    0.89460    0.64380    1.000
    C318     C        0.73650    0.88610    0.66250    1.000
    H227     H        0.73250    0.86560    0.71440    1.000
    C319     C        0.68300    0.90750    0.60520    1.000
    H228     H        0.64240    0.90170    0.61800    1.000
    N55      N        0.93970    0.82770    0.74820    1.000
    C320     C        0.88330    0.83620    0.67520    1.000
    H229     H        0.87050    0.81860    0.61680    1.000
    N56      N        0.84970    0.87580    0.70600    1.000
    C321     C        0.88530    0.89190    0.79800    1.000
    H230     H        0.87390    0.91760    0.83520    1.000
    C322     C        0.94090    0.86220    0.82400    1.000
    H231     H        0.97300    0.86480    0.88150    1.000
    Co8      Co       0.60911    0.32413    0.07897    1.000
    C323     C        0.17760    0.43150    0.56420    1.000
    C324     C        0.18910    0.38270    0.54980    1.000
    H232     H        0.16180    0.36510    0.49980    1.000
    C325     C        0.24050    0.35944    0.60870    1.000
    H233     H        0.24840    0.32600    0.59890    1.000
    C326     C        0.28050    0.38510    0.68200    1.000
    C327     C        0.26900    0.43400    0.69640    1.000
    H234     H        0.29630    0.45160    0.74650    1.000
    C328     C        0.21750    0.45723    0.63750    1.000
    H235     H        0.20970    0.49060    0.64730    1.000
    N57      N        0.42430    0.32040    0.77390    1.000
    C329     C        0.37360    0.33140    0.70160    1.000
    H236     H        0.36600    0.31960    0.63750    1.000
    N58      N        0.33550    0.36230    0.73730    1.000
    C330     C        0.36270    0.37040    0.83160    1.000
    H237     H        0.34630    0.39060    0.87420    1.000
    C331     C        0.41760    0.34450    0.85420    1.000
    H238     H        0.44620    0.34340    0.91530    1.000
    C332     C        0.74470    0.29790    0.09440    1.000
    H239     H        0.73210    0.26940    0.05740    1.000
    C333     C        0.80510    0.30880    0.13920    1.000
    H240     H        0.84180    0.28930    0.14260    1.000
    C334     C        0.74060    0.36630    0.16230    1.000
    H241     H        0.72500    0.39510    0.18560    1.000
    C335     C        0.85470    0.38040    0.23660    1.000
    C336     C        0.90840    0.35560    0.27930    1.000
    H242     H        0.91050    0.32140    0.27140    1.000
    C337     C        0.96000    0.38050    0.33420    1.000
    H243     H        0.99670    0.36280    0.36470    1.000
    C338     C        0.95880    0.43060    0.34540    1.000
    C339     C        0.90290    0.45430    0.30300    1.000
    H244     H        0.90000    0.48840    0.31220    1.000
    C340     C        0.85130    0.43020    0.24810    1.000
    H245     H        0.81400    0.44760    0.21870    1.000
    C341     C        0.01730    0.45770    0.39310    1.000
    C342     C        0.06950    0.43410    0.45210    1.000
    H246     H        0.06630    0.40040    0.46500    1.000
    C343     C        0.12530    0.45820    0.49200    1.000
    C344     C        0.13030    0.50720    0.46720    1.000
    H247     H        0.16950    0.52370    0.48870    1.000
    C345     C        0.07920    0.53210    0.41210    1.000
    C346     C        0.02220    0.50710    0.37620    1.000
    H248     H        0.98670    0.52420    0.33990    1.000
    C347     C        0.08340    0.58410    0.38390    1.000
    C348     C        0.13070    0.60050    0.34080    1.000
    H249     H        0.16230    0.57830    0.33090    1.000
    C349     C        0.13330    0.64860    0.31160    1.000
    H250     H        0.16640    0.65920    0.28280    1.000
    C350     C        0.08670    0.68080    0.32530    1.000
    C351     C        0.04030    0.66540    0.37170    1.000
    H251     H        0.00980    0.68790    0.38420    1.000
    C352     C        0.03850    0.61740    0.39980    1.000
    H252     H        0.00610    0.60690    0.43040    1.000
    C353     C        0.09910    0.74280    0.20940    1.000
    H253     H        0.10970    0.72080    0.16420    1.000
    C354     C        0.07810    0.80870    0.27770    1.000
    H254     H        0.07170    0.84210    0.28960    1.000
    C355     C        0.07210    0.77130    0.33860    1.000
    H255     H        0.06050    0.77330    0.39880    1.000
    C356     C        0.56370    0.40880    0.06230    1.000
    C357     C        0.53050    0.45630    0.02820    1.000
    C358     C        0.53360    0.49380    0.09440    1.000
    H256     H        0.55710    0.49010    0.15880    1.000
    C359     C        0.49860    0.46300    0.93590    1.000
    H257     H        0.49810    0.43760    0.89060    1.000
    N59      N        0.70490    0.33350    0.11010    1.000
    N60      N        0.80190    0.35430    0.17870    1.000
    N61      N        0.09460    0.79080    0.19720    1.000
    N62      N        0.08690    0.72970    0.29260    1.000
    O43      O        0.56100    0.37610    0.99890    1.000
    O44      O        0.59460    0.40350    0.14870    1.000
    O45      O        0.61130    0.26940    0.98650    1.000
    O46      O        0.53910    0.23440    0.85010    1.000
    O47      O        0.56410    0.19170    0.99990    1.000
    O48      O        0.50090    0.26490    0.98480    1.000
    S8       S        0.55220    0.23938    0.95725    1.000
    C360     C        0.18870    0.43750    0.52930    1.000
    C361     C        0.24810    0.44600    0.51060    1.000
    H258     H        0.25200    0.46650    0.45870    1.000
    C362     C        0.30160    0.42460    0.56790    1.000
    H259     H        0.34210    0.43040    0.55510    1.000
    C363     C        0.29580    0.39460    0.64380    1.000
    C364     C        0.23650    0.38610    0.66250    1.000
    H260     H        0.23250    0.36560    0.71440    1.000
    C365     C        0.18300    0.40750    0.60520    1.000
    H261     H        0.14240    0.40170    0.61800    1.000
    N63      N        0.43970    0.32770    0.74820    1.000
    C366     C        0.38330    0.33620    0.67520    1.000
    H262     H        0.37050    0.31860    0.61680    1.000
    N64      N        0.34970    0.37580    0.70600    1.000
    C367     C        0.38530    0.39190    0.79800    1.000
    H263     H        0.37390    0.41760    0.83520    1.000
    C368     C        0.44090    0.36220    0.82400    1.000
    H264     H        0.47300    0.36480    0.88150    1.000
    Co9      Co       0.00000    0.21984    0.25000    1.000
    Co10     Co       0.50000    0.71984    0.25000    1.000
    Co11     Co       0.00000    0.78016    0.75000    1.000
    Co12     Co       0.50000    0.28016    0.75000    1.000
