# CIF file generated by openbabel 3.1.0, see https://openbabel.org
data_I
_chemical_name_common 'image0'
_cell_length_a 11.8401
_cell_length_b 6.824
_cell_length_c 17.4619
_cell_angle_alpha 90
_cell_angle_beta 93.816
_cell_angle_gamma 90
_space_group_name_H-M_alt 'P 1'
_space_group_name_Hall 'P 1'
loop_
    _symmetry_equiv_pos_as_xyz
    x,y,z
loop_
    _atom_site_label
    _atom_site_type_symbol
    _atom_site_fract_x
    _atom_site_fract_y
    _atom_site_fract_z
    _atom_site_occupancy
    N1       N        0.61500    0.80800    0.10880    1.000
    N2       N        0.57590    0.07640    0.17890    1.000
    O1       O        0.60100    0.46200    0.28430    1.000
    O2       O        0.68800    0.23200    0.35480    1.000
    C1       C        0.67700    0.40300    0.33300    1.000
    C2       C        0.75000    0.56000    0.37000    1.000
    C3       C        0.75700    0.75000    0.34800    1.000
    H1       H        0.71220    0.79970    0.30580    1.000
    C4       C        0.83000    0.88100    0.38800    1.000
    H2       H        0.83500    0.01110    0.37350    1.000
    C5       C        0.90000    0.81000    0.45100    1.000
    C6       C        0.89000    0.61900    0.47300    1.000
    H3       H        0.93480    0.57360    0.51470    1.000
    C7       C        0.81800    0.49500    0.43200    1.000
    H4       H        0.81410    0.36390    0.44710    1.000
    C8       C        0.98100    0.92700    0.50100    1.000
    H5       H        0.00550    0.85760    0.54520    1.000
    C9       C        0.54100    0.88700    0.15850    1.000
    H6       H        0.47710    0.82460    0.17550    1.000
    C10      C        0.67400    0.11600    0.14200    1.000
    H7       H        0.71580    0.23160    0.14530    1.000
    C11      C        0.70000    0.95000    0.10000    1.000
    H8       H        0.75990    0.93510    0.06760    1.000
    C12      C        0.59800    0.61000    0.07710    1.000
    H9       H        0.66690    0.57050    0.05390    1.000
    H10      H        0.58750    0.52010    0.11920    1.000
    C13      C        0.50700    0.58800    0.02200    1.000
    H11      H        0.51010    0.69590    0.98640    1.000
    H12      H        0.43790    0.60500    0.04870    1.000
    N3       N        0.57000    0.89000    0.07200    1.000
    O3       O        0.61800    0.33500    0.32300    1.000
    O4       O        0.65700    0.52800    0.23300    1.000
    C14      C        0.67300    0.47300    0.30100    1.000
    C15      C        0.50300    0.97100    0.12700    1.000
    H13      H        0.42560    0.95630    0.12980    1.000
    C16      C        0.69000    0.06000    0.15600    1.000
    H14      H        0.75050    0.12050    0.18020    1.000
    C17      C        0.68000    0.95000    0.09000    1.000
    H15      H        0.74350    0.91480    0.06020    1.000
    C18      C        0.52000    0.76800    0.00900    1.000
    H16      H        0.44030    0.80040    0.00060    1.000
    H17      H        0.55590    0.80120    0.96200    1.000
    C19      C        0.53000    0.61000    0.01900    1.000
    H18      H        0.51530    0.59650    0.07280    1.000
    H19      H        0.60900    0.58720    0.01600    1.000
    C20      C        0.95700    0.02000    0.47100    1.000
    H20      H        0.94500    0.15350    0.45740    1.000
    C21      C        0.86200    0.69000    0.46800    1.000
    H21      H        0.89290    0.66280    0.51740    1.000
    C22      C        0.75000    0.60000    0.35000    1.000
    C23      C        0.88000    0.87000    0.43300    1.000
    C24      C        0.79300    0.55000    0.42800    1.000
    H22      H        0.77730    0.43580    0.45090    1.000
    C25      C        0.84000    0.91000    0.36000    1.000
    H23      H        0.85560    0.02890    0.33760    1.000
    C26      C        0.77200    0.77000    0.32100    1.000
    H24      H        0.74140    0.80190    0.27170    1.000
    N4       N        0.38500    0.80800    0.39120    1.000
    N5       N        0.42410    0.07640    0.32110    1.000
    O5       O        0.39900    0.46200    0.21570    1.000
    O6       O        0.31200    0.23200    0.14520    1.000
    C27      C        0.32300    0.40300    0.16700    1.000
    C28      C        0.25000    0.56000    0.13000    1.000
    C29      C        0.24300    0.75000    0.15200    1.000
    H25      H        0.28780    0.79970    0.19420    1.000
    C30      C        0.17000    0.88100    0.11200    1.000
    H26      H        0.16500    0.01110    0.12650    1.000
    C31      C        0.10000    0.81000    0.04900    1.000
    C32      C        0.11000    0.61900    0.02700    1.000
    H27      H        0.06520    0.57360    0.98530    1.000
    C33      C        0.18200    0.49500    0.06800    1.000
    H28      H        0.18590    0.36390    0.05290    1.000
    C34      C        0.01900    0.92700    0.99900    1.000
    H29      H        0.99450    0.85760    0.95480    1.000
    C35      C        0.45900    0.88700    0.34150    1.000
    H30      H        0.52290    0.82460    0.32450    1.000
    C36      C        0.32600    0.11600    0.35800    1.000
    H31      H        0.28420    0.23160    0.35470    1.000
    C37      C        0.30000    0.95000    0.40000    1.000
    H32      H        0.24010    0.93510    0.43240    1.000
    C38      C        0.40200    0.61000    0.42290    1.000
    H33      H        0.33310    0.57050    0.44610    1.000
    H34      H        0.41250    0.52010    0.38080    1.000
    C39      C        0.49300    0.58800    0.47800    1.000
    H35      H        0.48990    0.69590    0.51360    1.000
    H36      H        0.56210    0.60500    0.45130    1.000
    N6       N        0.43000    0.89000    0.42800    1.000
    O7       O        0.38200    0.33500    0.17700    1.000
    O8       O        0.34300    0.52800    0.26700    1.000
    C40      C        0.32700    0.47300    0.19900    1.000
    C41      C        0.49700    0.97100    0.37300    1.000
    H37      H        0.57440    0.95630    0.37020    1.000
    C42      C        0.31000    0.06000    0.34400    1.000
    H38      H        0.24950    0.12050    0.31980    1.000
    C43      C        0.32000    0.95000    0.41000    1.000
    H39      H        0.25650    0.91480    0.43980    1.000
    C44      C        0.48000    0.76800    0.49100    1.000
    H40      H        0.55970    0.80040    0.49940    1.000
    H41      H        0.44410    0.80120    0.53800    1.000
    C45      C        0.47000    0.61000    0.48100    1.000
    H42      H        0.48470    0.59650    0.42720    1.000
    H43      H        0.39100    0.58720    0.48400    1.000
    C46      C        0.04300    0.02000    0.02900    1.000
    H44      H        0.05500    0.15350    0.04260    1.000
    C47      C        0.13800    0.69000    0.03200    1.000
    H45      H        0.10710    0.66280    0.98260    1.000
    C48      C        0.25000    0.60000    0.15000    1.000
    C49      C        0.12000    0.87000    0.06700    1.000
    C50      C        0.20700    0.55000    0.07200    1.000
    H46      H        0.22270    0.43580    0.04910    1.000
    C51      C        0.16000    0.91000    0.14000    1.000
    H47      H        0.14440    0.02890    0.16240    1.000
    C52      C        0.22800    0.77000    0.17900    1.000
    H48      H        0.25860    0.80190    0.22830    1.000
    N7       N        0.38500    0.19200    0.89120    1.000
    N8       N        0.42410    0.92360    0.82110    1.000
    O9       O        0.39900    0.53800    0.71570    1.000
    O10      O        0.31200    0.76800    0.64520    1.000
    C53      C        0.32300    0.59700    0.66700    1.000
    C54      C        0.25000    0.44000    0.63000    1.000
    C55      C        0.24300    0.25000    0.65200    1.000
    H49      H        0.28780    0.20030    0.69420    1.000
    C56      C        0.17000    0.11900    0.61200    1.000
    H50      H        0.16500    0.98890    0.62650    1.000
    C57      C        0.10000    0.19000    0.54900    1.000
    C58      C        0.11000    0.38100    0.52700    1.000
    H51      H        0.06520    0.42640    0.48530    1.000
    C59      C        0.18200    0.50500    0.56800    1.000
    H52      H        0.18590    0.63610    0.55290    1.000
    C60      C        0.01900    0.07300    0.49900    1.000
    H53      H        0.99450    0.14240    0.45480    1.000
    C61      C        0.45900    0.11300    0.84150    1.000
    H54      H        0.52290    0.17540    0.82450    1.000
    C62      C        0.32600    0.88400    0.85800    1.000
    H55      H        0.28420    0.76840    0.85470    1.000
    C63      C        0.30000    0.05000    0.90000    1.000
    H56      H        0.24010    0.06490    0.93240    1.000
    C64      C        0.40200    0.39000    0.92290    1.000
    H57      H        0.33310    0.42950    0.94610    1.000
    H58      H        0.41250    0.47990    0.88080    1.000
    C65      C        0.49300    0.41200    0.97800    1.000
    H59      H        0.48990    0.30410    0.01360    1.000
    H60      H        0.56210    0.39500    0.95130    1.000
    N9       N        0.43000    0.11000    0.92800    1.000
    O11      O        0.38200    0.66500    0.67700    1.000
    O12      O        0.34300    0.47200    0.76700    1.000
    C66      C        0.32700    0.52700    0.69900    1.000
    C67      C        0.49700    0.02900    0.87300    1.000
    H61      H        0.57440    0.04370    0.87020    1.000
    C68      C        0.31000    0.94000    0.84400    1.000
    H62      H        0.24950    0.87950    0.81980    1.000
    C69      C        0.32000    0.05000    0.91000    1.000
    H63      H        0.25650    0.08520    0.93980    1.000
    C70      C        0.48000    0.23200    0.99100    1.000
    H64      H        0.55970    0.19960    0.99940    1.000
    H65      H        0.44410    0.19880    0.03800    1.000
    C71      C        0.47000    0.39000    0.98100    1.000
    H66      H        0.48470    0.40350    0.92720    1.000
    H67      H        0.39100    0.41280    0.98400    1.000
    C72      C        0.04300    0.98000    0.52900    1.000
    H68      H        0.05500    0.84650    0.54260    1.000
    C73      C        0.13800    0.31000    0.53200    1.000
    H69      H        0.10710    0.33720    0.48260    1.000
    C74      C        0.25000    0.40000    0.65000    1.000
    C75      C        0.12000    0.13000    0.56700    1.000
    C76      C        0.20700    0.45000    0.57200    1.000
    H70      H        0.22270    0.56420    0.54910    1.000
    C77      C        0.16000    0.09000    0.64000    1.000
    H71      H        0.14440    0.97110    0.66240    1.000
    C78      C        0.22800    0.23000    0.67900    1.000
    H72      H        0.25860    0.19810    0.72830    1.000
    N10      N        0.61500    0.19200    0.60880    1.000
    N11      N        0.57590    0.92360    0.67890    1.000
    O13      O        0.60100    0.53800    0.78430    1.000
    O14      O        0.68800    0.76800    0.85480    1.000
    C79      C        0.67700    0.59700    0.83300    1.000
    C80      C        0.75000    0.44000    0.87000    1.000
    C81      C        0.75700    0.25000    0.84800    1.000
    H73      H        0.71220    0.20030    0.80580    1.000
    C82      C        0.83000    0.11900    0.88800    1.000
    H74      H        0.83500    0.98890    0.87350    1.000
    C83      C        0.90000    0.19000    0.95100    1.000
    C84      C        0.89000    0.38100    0.97300    1.000
    H75      H        0.93480    0.42640    0.01470    1.000
    C85      C        0.81800    0.50500    0.93200    1.000
    H76      H        0.81410    0.63610    0.94710    1.000
    C86      C        0.98100    0.07300    0.00100    1.000
    H77      H        0.00550    0.14240    0.04520    1.000
    C87      C        0.54100    0.11300    0.65850    1.000
    H78      H        0.47710    0.17540    0.67550    1.000
    C88      C        0.67400    0.88400    0.64200    1.000
    H79      H        0.71580    0.76840    0.64530    1.000
    C89      C        0.70000    0.05000    0.60000    1.000
    H80      H        0.75990    0.06490    0.56760    1.000
    C90      C        0.59800    0.39000    0.57710    1.000
    H81      H        0.66690    0.42950    0.55390    1.000
    H82      H        0.58750    0.47990    0.61920    1.000
    C91      C        0.50700    0.41200    0.52200    1.000
    H83      H        0.51010    0.30410    0.48640    1.000
    H84      H        0.43790    0.39500    0.54870    1.000
    N12      N        0.57000    0.11000    0.57200    1.000
    O15      O        0.61800    0.66500    0.82300    1.000
    O16      O        0.65700    0.47200    0.73300    1.000
    C92      C        0.67300    0.52700    0.80100    1.000
    C93      C        0.50300    0.02900    0.62700    1.000
    H85      H        0.42560    0.04370    0.62980    1.000
    C94      C        0.69000    0.94000    0.65600    1.000
    H86      H        0.75050    0.87950    0.68020    1.000
    C95      C        0.68000    0.05000    0.59000    1.000
    H87      H        0.74350    0.08520    0.56020    1.000
    C96      C        0.52000    0.23200    0.50900    1.000
    H88      H        0.44030    0.19960    0.50060    1.000
    H89      H        0.55590    0.19880    0.46200    1.000
    C97      C        0.53000    0.39000    0.51900    1.000
    H90      H        0.51530    0.40350    0.57280    1.000
    H91      H        0.60900    0.41280    0.51600    1.000
    C98      C        0.95700    0.98000    0.97100    1.000
    H92      H        0.94500    0.84650    0.95740    1.000
    C99      C        0.86200    0.31000    0.96800    1.000
    H93      H        0.89290    0.33720    0.01740    1.000
    C100     C        0.75000    0.40000    0.85000    1.000
    C101     C        0.88000    0.13000    0.93300    1.000
    C102     C        0.79300    0.45000    0.92800    1.000
    H94      H        0.77730    0.56420    0.95090    1.000
    C103     C        0.84000    0.09000    0.86000    1.000
    H95      H        0.85560    0.97110    0.83760    1.000
    C104     C        0.77200    0.23000    0.82100    1.000
    H96      H        0.74140    0.19810    0.77170    1.000
    Zn1      Zn       0.50000    0.24990    0.25000    1.000
    Zn2      Zn       0.50000    0.75010    0.75000    1.000
