# CIF file generated by openbabel 3.1.0, see https://openbabel.org
data_I
_chemical_name_common 'image0'
_cell_length_a 21.5326
_cell_length_b 21.4882
_cell_length_c 21.6373
_cell_angle_alpha 94.3385
_cell_angle_beta 118.784
_cell_angle_gamma 117.537
_space_group_name_H-M_alt 'P 1'
_space_group_name_Hall 'P 1'
loop_
    _symmetry_equiv_pos_as_xyz
    x,y,z
loop_
    _atom_site_label
    _atom_site_type_symbol
    _atom_site_fract_x
    _atom_site_fract_y
    _atom_site_fract_z
    _atom_site_occupancy
    O1       O        0.60591    0.66976    0.70253    1.000
    O2       O        0.62485    0.57246    0.70019    1.000
    C1       C        0.65070    0.64158    0.73475    1.000
    O3       O        0.44131    0.54104    0.63778    1.000
    O4       O        0.45498    0.45050    0.59260    1.000
    C2       C        0.41385    0.46926    0.61078    1.000
    Cu1      Cu       0.49708    0.61109    0.60022    1.000
    Cu2      Cu       0.54901    0.52425    0.58891    1.000
    O5       O        0.39736    0.54039    0.49587    1.000
    O6       O        0.46598    0.49021    0.47934    1.000
    O7       O        0.55850    0.66617    0.55887    1.000
    O8       O        0.63337    0.61035    0.58431    1.000
    C3       C        0.40408    0.50076    0.45280    1.000
    C4       C        0.61346    0.65637    0.55676    1.000
    H1       H        0.30113    0.93157    0.69864    1.000
    C5       C        0.25245    0.99918    0.66922    1.000
    C6       C        0.22136    0.03650    0.68611    1.000
    C7       C        0.22268    0.04130    0.75120    1.000
    H2       H        0.20006    0.07173    0.76542    1.000
    C8       C        0.25632    0.00910    0.79914    1.000
    C9       C        0.28109    0.96732    0.77772    1.000
    H3       H        0.30196    0.93712    0.81092    1.000
    C10      C        0.28046    0.96346    0.71400    1.000
    C11      C        0.34512    0.02953    0.93214    1.000
    H4       H        0.39367    0.04063    0.92307    1.000
    C12      C        0.35564    0.02035    0.99796    1.000
    C13      C        0.29605    0.01373    0.01118    1.000
    H5       H        0.30423    0.00800    0.06329    1.000
    C14      C        0.22537    0.01347    0.95662    1.000
    C15      C        0.21164    0.01359    0.88681    1.000
    H6       H        0.15433    0.00777    0.84190    1.000
    C16      C        0.27099    0.01968    0.87413    1.000
    H7       H        0.25012    0.99290    0.61799    1.000
    H8       H        0.68473    0.87945    0.89608    1.000
    C17      C        0.81876    0.96632    0.95949    1.000
    C18      C        0.89595    0.00940    0.03090    1.000
    C19      C        0.89728    0.00999    0.09585    1.000
    H9       H        0.95843    0.04559    0.15120    1.000
    C20      C        0.82079    0.96503    0.08891    1.000
    C21      C        0.74571    0.91492    0.01600    1.000
    H10      H        0.68616    0.87216    0.00679    1.000
    C22      C        0.74421    0.91777    0.95217    1.000
    C23      C        0.88497    0.99780    0.23041    1.000
    H11      H        0.94573    0.01143    0.24291    1.000
    C24      C        0.87773    0.00873    0.29047    1.000
    C25      C        0.79780    0.98922    0.27396    1.000
    H12      H        0.79102    0.99689    0.31978    1.000
    C26      C        0.72637    0.95801    0.19789    1.000
    C27      C        0.73857    0.95235    0.14122    1.000
    H13      H        0.68894    0.94144    0.08503    1.000
    C28      C        0.81566    0.97075    0.15526    1.000
    H14      H        0.81746    0.96333    0.90876    1.000
    H15      H        0.93167    0.19229    0.23931    1.000
    C29      C        0.80442    0.15171    0.20377    1.000
    C30      C        0.74583    0.16853    0.19113    1.000
    C31      C        0.76936    0.24229    0.20201    1.000
    H16      H        0.72275    0.25553    0.18857    1.000
    C32      C        0.85157    0.29738    0.22404    1.000
    C33      C        0.90992    0.27931    0.23865    1.000
    H17      H        0.97556    0.32226    0.25963    1.000
    C34      C        0.88631    0.20652    0.22846    1.000
    C35      C        0.93000    0.40984    0.20703    1.000
    H18      H        0.92848    0.37408    0.16776    1.000
    C36      C        0.98548    0.48743    0.23594    1.000
    C37      C        0.98586    0.53216    0.28647    1.000
    H19      H        0.03115    0.59325    0.31149    1.000
    C38      C        0.93002    0.49740    0.30715    1.000
    C39      C        0.87726    0.41843    0.27902    1.000
    H20      H        0.84013    0.38882    0.29976    1.000
    C40      C        0.88080    0.37555    0.23228    1.000
    H21      H        0.78614    0.09455    0.19402    1.000
    H22      H        0.00326    0.41274    0.72717    1.000
    C41      C        0.01101    0.50321    0.68991    1.000
    C42      C        0.05587    0.58086    0.70895    1.000
    C43      C        0.12281    0.62960    0.78450    1.000
    H23      H        0.15506    0.69027    0.79993    1.000
    C44      C        0.14313    0.59913    0.84000    1.000
    C45      C        0.10291    0.52129    0.81794    1.000
    H24      H        0.12148    0.49640    0.85916    1.000
    C46      C        0.03625    0.47357    0.74349    1.000
    C47      C        0.27389    0.71722    0.95523    1.000
    H25      H        0.29124    0.73943    0.91880    1.000
    C48      C        0.32507    0.75910    0.03349    1.000
    C49      C        0.30152    0.72708    0.07849    1.000
    H26      H        0.34024    0.75928    0.13902    1.000
    C50      C        0.22626    0.65462    0.04454    1.000
    C51      C        0.17584    0.61576    0.96698    1.000
    H27      H        0.11466    0.56201    0.93995    1.000
    C52      C        0.19975    0.64546    0.92219    1.000
    H28      H        0.95830    0.46439    0.63160    1.000
    O9       O        0.61614    0.09401    0.18563    1.000
    O10      O        0.63172    0.04811    0.09698    1.000
    C53      C        0.65759    0.10292    0.15372    1.000
    O11      O        0.63232    0.97902    0.21566    1.000
    O12      O        0.57986    0.90529    0.09664    1.000
    C54      C        0.64060    0.94259    0.17100    1.000
    Cu3      Cu       0.53680    0.99087    0.17202    1.000
    Cu4      Cu       0.52024    0.95104    0.04519    1.000
    O13      O        0.45506    0.88140    0.13834    1.000
    O14      O        0.41133    0.86005    0.01334    1.000
    O15      O        0.43981    0.99798    0.10852    1.000
    O16      O        0.46335    0.00334    0.01450    1.000
    C55      C        0.40119    0.83722    0.06431    1.000
    C56      C        0.42446    0.00902    0.04455    1.000
    H29      H        0.38753    0.38797    0.08985    1.000
    C57      C        0.29583    0.28384    0.08388    1.000
    C58      C        0.25069    0.24976    0.11351    1.000
    C59      C        0.26227    0.29421    0.17308    1.000
    H30      H        0.22371    0.26814    0.19375    1.000
    C60      C        0.31596    0.37270    0.19997    1.000
    C61      C        0.36125    0.40596    0.17028    1.000
    H31      H        0.40239    0.46717    0.19050    1.000
    C62      C        0.35246    0.36161    0.11338    1.000
    C63      C        0.28317    0.46273    0.22270    1.000
    H32      H        0.25819    0.45606    0.16398    1.000
    C64      C        0.28024    0.50931    0.26759    1.000
    C65      C        0.31415    0.51766    0.34226    1.000
    H33      H        0.31360    0.55535    0.37766    1.000
    C66      C        0.35026    0.47873    0.37116    1.000
    C67      C        0.34871    0.42895    0.32492    1.000
    H34      H        0.37727    0.39867    0.34740    1.000
    C68      C        0.31515    0.42124    0.25034    1.000
    H35      H        0.28674    0.24954    0.03711    1.000
    H36      H        0.89073    0.24644    0.36202    1.000
    C69      C        0.95159    0.35533    0.44022    1.000
    C70      C        0.02878    0.42297    0.49595    1.000
    C71      C        0.10657    0.43195    0.52358    1.000
    H37      H        0.16651    0.48325    0.57074    1.000
    C72      C        0.10545    0.37222    0.49313    1.000
    C73      C        0.02771    0.30862    0.43044    1.000
    H38      H        0.02507    0.26310    0.40171    1.000
    C74      C        0.95120    0.29862    0.40697    1.000
    C75      C        0.26413    0.42392    0.56256    1.000
    H39      H        0.28057    0.47973    0.56291    1.000
    C76      C        0.32613    0.40780    0.58695    1.000
    C77      C        0.29951    0.33187    0.57552    1.000
    H40      H        0.34498    0.31699    0.58993    1.000
    C78      C        0.21456    0.27618    0.54854    1.000
    C79      C        0.15906    0.29655    0.53215    1.000
    H41      H        0.09503    0.25383    0.51474    1.000
    C80      C        0.17927    0.36650    0.53131    1.000
    H42      H        0.89057    0.34776    0.41810    1.000
    H43      H        0.55859    0.73548    0.35842    1.000
    C81      C        0.58666    0.70311    0.45399    1.000
    C82      C        0.63989    0.68827    0.50927    1.000
    C83      C        0.71010    0.69782    0.51295    1.000
    H44      H        0.75290    0.68765    0.55659    1.000
    C84      C        0.72742    0.72439    0.46265    1.000
    C85      C        0.67161    0.73631    0.40655    1.000
    H45      H        0.68225    0.75426    0.36524    1.000
    C86      C        0.60176    0.72583    0.40237    1.000
    C87      C        0.85186    0.81383    0.46526    1.000
    H46      H        0.82882    0.84970    0.45914    1.000
    C88      C        0.92619    0.83716    0.47038    1.000
    C89      C        0.95682    0.79193    0.48150    1.000
    H47      H        0.01563    0.80996    0.48676    1.000
    C90      C        0.91140    0.72318    0.48584    1.000
    C91      C        0.83665    0.70050    0.48040    1.000
    H48      H        0.80089    0.64688    0.48355    1.000
    C92      C        0.80696    0.74610    0.47029    1.000
    H49      H        0.52994    0.69408    0.44780    1.000
    H50      H        0.87000    0.49852    0.80968    1.000
    C93      C        0.94435    0.54690    0.93101    1.000
    C94      C        0.96997    0.59930    0.99446    1.000
    C95      C        0.93869    0.64303    0.98588    1.000
    H51      H        0.95624    0.68212    0.03518    1.000
    C96      C        0.87979    0.63207    0.91308    1.000
    C97      C        0.85577    0.58116    0.84981    1.000
    H52      H        0.81273    0.57550    0.79278    1.000
    C98      C        0.88865    0.53873    0.85885    1.000
    C99      C        0.76299    0.64587    0.84518    1.000
    H53      H        0.71956    0.58484    0.82398    1.000
    C100     C        0.73562    0.68747    0.81019    1.000
    C101     C        0.79595    0.76646    0.83834    1.000
    H54      H        0.77682    0.80020    0.81017    1.000
    C102     C        0.88238    0.80066    0.90057    1.000
    C103     C        0.90669    0.75552    0.93068    1.000
    H55      H        0.97378    0.77836    0.97245    1.000
    C104     C        0.84813    0.67902    0.90090    1.000
    H56      H        0.96717    0.51085    0.93701    1.000
    O17      O        0.17813    0.12588    0.11603    1.000
    O18      O        0.13457    0.13942    0.00004    1.000
    C105     C        0.18443    0.16778    0.07512    1.000
    O19      O        0.18586    0.02265    0.04191    1.000
    O20      O        0.09574    0.00714    0.91779    1.000
    C106     C        0.16531    0.01308    0.97236    1.000
    Cu5      Cu       0.10824    0.01503    0.06816    1.000
    Cu6      Cu       0.03221    0.03490    0.94052    1.000
    O21      O        0.02612    0.90749    0.00103    1.000
    O22      O        0.94053    0.92724    0.90000    1.000
    O23      O        0.01949    0.01046    0.07544    1.000
    O24      O        0.97978    0.05905    0.98239    1.000
    C107     C        0.95242    0.88245    0.93520    1.000
    C108     C        0.97345    0.03418    0.03450    1.000
    O25      O        0.23704    0.65695    0.16057    1.000
    O26      O        0.11632    0.55322    0.04700    1.000
    C109     C        0.19278    0.61954    0.08662    1.000
    O27      O        0.23278    0.59396    0.26566    1.000
    O28      O        0.17179    0.49698    0.15576    1.000
    C110     C        0.22827    0.53734    0.22905    1.000
    Cu7      Cu       0.17205    0.63528    0.20438    1.000
    Cu8      Cu       0.07098    0.49974    0.09976    1.000
    O29      O        0.09050    0.59240    0.23091    1.000
    O30      O        0.04233    0.46931    0.17013    1.000
    O31      O        0.09508    0.65371    0.12479    1.000
    O32      O        0.98624    0.52412    0.06074    1.000
    C111     C        0.04319    0.51833    0.21229    1.000
    C112     C        0.01672    0.59442    0.06671    1.000
    O33      O        0.11059    0.05701    0.61814    1.000
    O34      O        0.19733    0.06963    0.57897    1.000
    C113     C        0.17768    0.06045    0.62804    1.000
    O35      O        0.95159    0.95790    0.48360    1.000
    O36      O        0.04129    0.93710    0.46939    1.000
    C114     C        0.97475    0.91368    0.47280    1.000
    Cu9      Cu       0.03467    0.06791    0.52925    1.000
    Cu10     Cu       0.10664    0.03917    0.47250    1.000
    O37      O        0.96762    0.07211    0.43053    1.000
    O38      O        0.00433    0.01243    0.37469    1.000
    O39      O        0.12956    0.17332    0.56682    1.000
    O40      O        0.16228    0.14629    0.48576    1.000
    C115     C        0.95331    0.03286    0.36919    1.000
    C116     C        0.17492    0.19559    0.53873    1.000
    O41      O        0.09129    0.64086    0.63173    1.000
    O42      O        0.94965    0.56897    0.59162    1.000
    C117     C        0.03275    0.60570    0.64495    1.000
    O43      O        0.02144    0.69929    0.52975    1.000
    O44      O        0.87810    0.59900    0.46324    1.000
    C118     C        0.93887    0.67177    0.49324    1.000
    Cu11     Cu       0.06080    0.63361    0.52924    1.000
    Cu12     Cu       0.90478    0.52472    0.48532    1.000
    O45      O        0.00750    0.60811    0.41982    1.000
    O46      O        0.88390    0.49631    0.38614    1.000
    O47      O        0.07656    0.55161    0.52137    1.000
    O48      O        0.95458    0.46663    0.51365    1.000
    C119     C        0.93846    0.53846    0.37151    1.000
    C120     C        0.02388    0.48511    0.51736    1.000
