# CIF file generated by openbabel 3.1.0, see https://openbabel.org
data_I
_chemical_name_common 'SOPPOD_clean'
_cell_length_a 8.9151
_cell_length_b 9.3148
_cell_length_c 9.3148
_cell_angle_alpha 76.7616
_cell_angle_beta 61.4097
_cell_angle_gamma 61.4098
_space_group_name_H-M_alt 'P 1'
_space_group_name_Hall 'P 1'
loop_
    _symmetry_equiv_pos_as_xyz
    x,y,z
loop_
    _atom_site_label
    _atom_site_type_symbol
    _atom_site_fract_x
    _atom_site_fract_y
    _atom_site_fract_z
    _atom_site_occupancy
    Tb1      Tb       0.87500    0.25000    0.25000    1.000
    Tb2      Tb       0.12500    0.75000    0.75000    1.000
    K1       K        0.37500    0.25000    0.25000    1.000
    K2       K        0.62500    0.75000    0.75000    1.000
    C1       C        0.44310    0.47200    0.48140    1.000
    C2       C        0.89650    0.02800    0.01860    1.000
    C3       C        0.92450    0.51860    0.97200    1.000
    C4       C        0.91510    0.98140    0.52800    1.000
    C5       C        0.55690    0.52800    0.51860    1.000
    C6       C        0.10350    0.97200    0.98140    1.000
    C7       C        0.07550    0.48140    0.02800    1.000
    C8       C        0.08490    0.01860    0.47200    1.000
    O1       O        0.53670    0.35930    0.37870    1.000
    O2       O        0.82440    0.44130    0.04310    1.000
    O3       O        0.77470    0.14070    0.12130    1.000
    O4       O        0.80880    0.05870    0.45690    1.000
    O5       O        0.91540    0.62130    0.85930    1.000
    O6       O        0.86750    0.95690    0.94130    1.000
    O7       O        0.89600    0.87870    0.64070    1.000
    O8       O        0.26570    0.54310    0.55870    1.000
    O9       O        0.46330    0.64070    0.62130    1.000
    O10      O        0.17560    0.55870    0.95690    1.000
    O11      O        0.22530    0.85930    0.87870    1.000
    O12      O        0.19120    0.94130    0.54310    1.000
    O13      O        0.08460    0.37870    0.14070    1.000
    O14      O        0.13250    0.04310    0.05870    1.000
    O15      O        0.10400    0.12130    0.35930    1.000
    O16      O        0.73430    0.45690    0.44130    1.000
