# CIF file generated by openbabel 3.1.0, see https://openbabel.org
data_I
_chemical_name_common 'image0'
_cell_length_a 13.5895
_cell_length_b 8.8351
_cell_length_c 9.2294
_cell_angle_alpha 90
_cell_angle_beta 100.79
_cell_angle_gamma 90
_space_group_name_H-M_alt 'P 1'
_space_group_name_Hall 'P 1'
loop_
    _symmetry_equiv_pos_as_xyz
    x,y,z
loop_
    _atom_site_label
    _atom_site_type_symbol
    _atom_site_fract_x
    _atom_site_fract_y
    _atom_site_fract_z
    _atom_site_occupancy
    P1       P        0.12940    0.11740    0.42950    1.000
    O1       O        0.15370    0.15270    0.27690    1.000
    O2       O        0.06600    0.44000    0.16980    1.000
    O3       O        0.06520    0.34850    0.86690    1.000
    O4       O        0.15170    0.94830    0.47890    1.000
    O5       O        0.02090    0.14880    0.43840    1.000
    C1       C        0.19430    0.25400    0.55640    1.000
    F1       F        0.25090    0.33390    0.08140    1.000
    C2       C        0.22380    0.21100    0.71700    1.000
    N1       N        0.33470    0.16580    0.72320    1.000
    C3       C        0.34910    0.00640    0.71770    1.000
    C4       C        0.40030    0.94810    0.61690    1.000
    C5       C        0.45520    0.02710    0.53400    1.000
    C6       C        0.42660    0.18300    0.52910    1.000
    C7       C        0.39660    0.24630    0.65490    1.000
    Zr1      Zr       0.10990    0.25330    0.07050    1.000
    P2       P        0.87060    0.11740    0.07050    1.000
    O6       O        0.84630    0.15270    0.22310    1.000
    O7       O        0.93400    0.44000    0.33020    1.000
    O8       O        0.93480    0.34850    0.63310    1.000
    O9       O        0.84830    0.94830    0.02110    1.000
    O10      O        0.97910    0.14880    0.06160    1.000
    C8       C        0.80570    0.25400    0.94360    1.000
    F2       F        0.74910    0.33390    0.41860    1.000
    C9       C        0.77620    0.21100    0.78300    1.000
    N2       N        0.66530    0.16580    0.77680    1.000
    C10      C        0.65090    0.00640    0.78230    1.000
    C11      C        0.59970    0.94810    0.88310    1.000
    C12      C        0.54480    0.02710    0.96600    1.000
    C13      C        0.57340    0.18300    0.97090    1.000
    C14      C        0.60340    0.24630    0.84510    1.000
    Zr2      Zr       0.89010    0.25330    0.42950    1.000
    P3       P        0.87060    0.88260    0.57050    1.000
    O11      O        0.84630    0.84730    0.72310    1.000
    O12      O        0.93400    0.56000    0.83020    1.000
    O13      O        0.93480    0.65150    0.13310    1.000
    O14      O        0.84830    0.05170    0.52110    1.000
    O15      O        0.97910    0.85120    0.56160    1.000
    C15      C        0.80570    0.74600    0.44360    1.000
    F3       F        0.74910    0.66610    0.91860    1.000
    C16      C        0.77620    0.78900    0.28300    1.000
    N3       N        0.66530    0.83420    0.27680    1.000
    C17      C        0.65090    0.99360    0.28230    1.000
    C18      C        0.59970    0.05190    0.38310    1.000
    C19      C        0.54480    0.97290    0.46600    1.000
    C20      C        0.57340    0.81700    0.47090    1.000
    C21      C        0.60340    0.75370    0.34510    1.000
    Zr3      Zr       0.89010    0.74670    0.92950    1.000
    P4       P        0.12940    0.88260    0.92950    1.000
    O16      O        0.15370    0.84730    0.77690    1.000
    O17      O        0.06600    0.56000    0.66980    1.000
    O18      O        0.06520    0.65150    0.36690    1.000
    O19      O        0.15170    0.05170    0.97890    1.000
    O20      O        0.02090    0.85120    0.93840    1.000
    C22      C        0.19430    0.74600    0.05640    1.000
    F4       F        0.25090    0.66610    0.58140    1.000
    C23      C        0.22380    0.78900    0.21700    1.000
    N4       N        0.33470    0.83420    0.22320    1.000
    C24      C        0.34910    0.99360    0.21770    1.000
    C25      C        0.40030    0.05190    0.11690    1.000
    C26      C        0.45520    0.97290    0.03400    1.000
    C27      C        0.42660    0.81700    0.02910    1.000
    C28      C        0.39660    0.75370    0.15490    1.000
    Zr4      Zr       0.10990    0.74670    0.57050    1.000
    P5       P        0.00000    0.54230    0.25000    1.000
    P6       P        0.00000    0.45770    0.75000    1.000
