# CIF file generated by openbabel 3.1.0, see https://openbabel.org
data_I
_chemical_name_common 'QUPDEL_clean'
_cell_length_a 9.106
_cell_length_b 9.106
_cell_length_c 14.4522
_cell_angle_alpha 79.7737
_cell_angle_beta 79.7737
_cell_angle_gamma 115.878
_space_group_name_H-M_alt 'P 1'
_space_group_name_Hall 'P 1'
loop_
    _symmetry_equiv_pos_as_xyz
    x,y,z
loop_
    _atom_site_label
    _atom_site_type_symbol
    _atom_site_fract_x
    _atom_site_fract_y
    _atom_site_fract_z
    _atom_site_occupancy
    Gd1      Gd       0.50938    0.75938    0.98124    1.000
    Gd2      Gd       0.74062    0.99062    0.51876    1.000
    Gd3      Gd       0.49062    0.24062    0.01876    1.000
    Gd4      Gd       0.25938    0.00938    0.48124    1.000
    H1       H        0.09500    0.17900    0.94600    1.000
    H2       H        0.95900    0.37500    0.94600    1.000
    H3       H        0.32100    0.40500    0.55400    1.000
    H4       H        0.12500    0.54100    0.55400    1.000
    H5       H        0.90500    0.82100    0.05400    1.000
    H6       H        0.04100    0.62500    0.05400    1.000
    H7       H        0.67900    0.59500    0.44600    1.000
    H8       H        0.87500    0.45900    0.44600    1.000
    C1       C        0.25399    0.43439    0.94182    1.000
    C2       C        0.10377    0.28497    0.93566    1.000
    C3       C        0.80419    0.12379    0.94182    1.000
    C4       C        0.96057    0.27937    0.93566    1.000
    C5       C        0.06561    0.24601    0.55818    1.000
    C6       C        0.21503    0.39623    0.56434    1.000
    C7       C        0.37621    0.69581    0.55818    1.000
    C8       C        0.22063    0.53943    0.56434    1.000
    C9       C        0.74601    0.56561    0.05818    1.000
    C10      C        0.89623    0.71503    0.06434    1.000
    C11      C        0.19581    0.87621    0.05818    1.000
    C12      C        0.03943    0.72063    0.06434    1.000
    C13      C        0.93439    0.75399    0.44182    1.000
    C14      C        0.78497    0.60377    0.43566    1.000
    C15      C        0.62379    0.30419    0.44182    1.000
    C16      C        0.77937    0.46057    0.43566    1.000
    C17      C        0.67490    0.82510    0.75000    1.000
    C18      C        0.57510    0.92490    0.75000    1.000
    C19      C        0.32510    0.17490    0.25000    1.000
    C20      C        0.42490    0.07510    0.25000    1.000
    O1       O        0.36656    0.40624    0.96720    1.000
    O2       O        0.26926    0.58068    0.92426    1.000
    O3       O        0.65994    0.73776    0.83170    1.000
    O4       O        0.66624    0.12656    0.96720    1.000
    O5       O        0.80648    0.99506    0.92426    1.000
    O6       O        0.50836    0.93054    0.83170    1.000
    O7       O        0.09376    0.13344    0.53280    1.000
    O8       O        0.91932    0.23074    0.57574    1.000
    O9       O        0.76224    0.84006    0.66830    1.000
    O10      O        0.37344    0.83376    0.53280    1.000
    O11      O        0.50494    0.69352    0.57574    1.000
    O12      O        0.56946    0.99164    0.66830    1.000
    O13      O        0.63344    0.59376    0.03280    1.000
    O14      O        0.73074    0.41932    0.07574    1.000
    O15      O        0.34006    0.26224    0.16830    1.000
    O16      O        0.33376    0.87344    0.03280    1.000
    O17      O        0.19352    0.00494    0.07574    1.000
    O18      O        0.49164    0.06946    0.16830    1.000
    O19      O        0.90624    0.86656    0.46720    1.000
    O20      O        0.08068    0.76926    0.42426    1.000
    O21      O        0.23776    0.15994    0.33170    1.000
    O22      O        0.62656    0.16624    0.46720    1.000
    O23      O        0.49506    0.30648    0.42426    1.000
    O24      O        0.43054    0.00836    0.33170    1.000
