# CIF file generated by openbabel 3.1.0, see https://openbabel.org
data_I
_chemical_name_common 'YOZCAS_clean5b'
_cell_length_a 19.6997
_cell_length_b 25.9929
_cell_length_c 25.9929
_cell_angle_alpha 120
_cell_angle_beta 90
_cell_angle_gamma 90
_space_group_name_H-M_alt 'P 1'
_space_group_name_Hall 'P 1'
loop_
    _symmetry_equiv_pos_as_xyz
    x,y,z
loop_
    _atom_site_label
    _atom_site_type_symbol
    _atom_site_fract_x
    _atom_site_fract_y
    _atom_site_fract_z
    _atom_site_occupancy
    Zn1      Zn       0.59713    0.89822    0.33209    1.000
    Zn2      Zn       0.59713    0.43387    0.10178    1.000
    Zn3      Zn       0.59713    0.66791    0.56613    1.000
    Zn4      Zn       0.09713    0.10178    0.66791    1.000
    Zn5      Zn       0.09713    0.56613    0.89822    1.000
    Zn6      Zn       0.09713    0.33209    0.43387    1.000
    Zn7      Zn       0.40287    0.56613    0.66791    1.000
    Zn8      Zn       0.40287    0.33209    0.89822    1.000
    Zn9      Zn       0.40287    0.10178    0.43387    1.000
    Zn10     Zn       0.90287    0.43387    0.33209    1.000
    Zn11     Zn       0.90287    0.66791    0.10178    1.000
    Zn12     Zn       0.90287    0.89822    0.56613    1.000
    Zn13     Zn       0.40287    0.10178    0.66791    1.000
    Zn14     Zn       0.40287    0.56613    0.89822    1.000
    Zn15     Zn       0.40287    0.33209    0.43387    1.000
    Zn16     Zn       0.90287    0.89822    0.33209    1.000
    Zn17     Zn       0.90287    0.43387    0.10178    1.000
    Zn18     Zn       0.90287    0.66791    0.56613    1.000
    Zn19     Zn       0.59713    0.43387    0.33209    1.000
    Zn20     Zn       0.59713    0.66791    0.10178    1.000
    Zn21     Zn       0.59713    0.89822    0.56613    1.000
    Zn22     Zn       0.09713    0.56613    0.66791    1.000
    Zn23     Zn       0.09713    0.33209    0.89822    1.000
    Zn24     Zn       0.09713    0.10178    0.43387    1.000
    H25      H        0.43650    0.88502    0.31414    1.000
    H26      H        0.68597    0.00365    0.32147    1.000
    H27      H        0.59169    0.91464    0.22081    1.000
    H28      H        0.51142    0.79650    0.34737    1.000
    H29      H        0.43650    0.42912    0.11498    1.000
    H30      H        0.68597    0.31782    0.99635    1.000
    H31      H        0.59169    0.30617    0.08536    1.000
    H32      H        0.51142    0.55087    0.20350    1.000
    H33      H        0.43650    0.68586    0.57088    1.000
    H34      H        0.68597    0.67853    0.68218    1.000
    H35      H        0.59169    0.77919    0.69383    1.000
    H36      H        0.51142    0.65263    0.44913    1.000
    H37      H        0.93650    0.11498    0.68586    1.000
    H38      H        0.18597    0.99635    0.67853    1.000
    H39      H        0.09169    0.08536    0.77919    1.000
    H40      H        0.01142    0.20350    0.65263    1.000
    H41      H        0.93650    0.57088    0.88502    1.000
    H42      H        0.18597    0.68218    0.00365    1.000
    H43      H        0.09169    0.69383    0.91464    1.000
    H44      H        0.01142    0.44913    0.79650    1.000
    H45      H        0.93650    0.31414    0.42912    1.000
    H46      H        0.18597    0.32147    0.31782    1.000
    H47      H        0.09169    0.22081    0.30617    1.000
    H48      H        0.01142    0.34737    0.55087    1.000
    H49      H        0.56350    0.57088    0.68586    1.000
    H50      H        0.31403    0.68218    0.67853    1.000
    H51      H        0.40831    0.69383    0.77919    1.000
    H52      H        0.48858    0.44913    0.65263    1.000
    H53      H        0.56350    0.31414    0.88502    1.000
    H54      H        0.31403    0.32147    0.00365    1.000
    H55      H        0.40831    0.22081    0.91464    1.000
    H56      H        0.48858    0.34737    0.79650    1.000
    H57      H        0.56350    0.11498    0.42912    1.000
    H58      H        0.31403    0.99635    0.31782    1.000
    H59      H        0.40831    0.08536    0.30617    1.000
    H60      H        0.48858    0.20350    0.55087    1.000
    H61      H        0.06350    0.42912    0.31414    1.000
    H62      H        0.81403    0.31782    0.32147    1.000
    H63      H        0.90831    0.30617    0.22081    1.000
    H64      H        0.98858    0.55087    0.34737    1.000
    H65      H        0.06350    0.68586    0.11498    1.000
    H66      H        0.81403    0.67853    0.99635    1.000
    H67      H        0.90831    0.77919    0.08536    1.000
    H68      H        0.98858    0.65263    0.20350    1.000
    H69      H        0.06350    0.88502    0.57088    1.000
    H70      H        0.81403    0.00365    0.68218    1.000
    H71      H        0.90831    0.91464    0.69383    1.000
    H72      H        0.98858    0.79650    0.44913    1.000
    H73      H        0.56350    0.11498    0.68586    1.000
    H74      H        0.31403    0.99635    0.67853    1.000
    H75      H        0.40831    0.08536    0.77919    1.000
    H76      H        0.48858    0.20350    0.65263    1.000
    H77      H        0.56350    0.57088    0.88502    1.000
    H78      H        0.31403    0.68218    0.00365    1.000
    H79      H        0.40831    0.69383    0.91464    1.000
    H80      H        0.48858    0.44913    0.79650    1.000
    H81      H        0.56350    0.31414    0.42912    1.000
    H82      H        0.31403    0.32147    0.31782    1.000
    H83      H        0.40831    0.22081    0.30617    1.000
    H84      H        0.48858    0.34737    0.55087    1.000
    H85      H        0.06350    0.88502    0.31414    1.000
    H86      H        0.81403    0.00365    0.32147    1.000
    H87      H        0.90831    0.91464    0.22081    1.000
    H88      H        0.98858    0.79650    0.34737    1.000
    H89      H        0.06350    0.42912    0.11498    1.000
    H90      H        0.81403    0.31782    0.99635    1.000
    H91      H        0.90831    0.30617    0.08536    1.000
    H92      H        0.98858    0.55087    0.20350    1.000
    H93      H        0.06350    0.68586    0.57088    1.000
    H94      H        0.81403    0.67853    0.68218    1.000
    H95      H        0.90831    0.77919    0.69383    1.000
    H96      H        0.98858    0.65263    0.44913    1.000
    H97      H        0.43650    0.42912    0.31414    1.000
    H98      H        0.68597    0.31782    0.32147    1.000
    H99      H        0.59169    0.30617    0.22081    1.000
    H100     H        0.51142    0.55087    0.34737    1.000
    H101     H        0.43650    0.68586    0.11498    1.000
    H102     H        0.68597    0.67853    0.99635    1.000
    H103     H        0.59169    0.77919    0.08536    1.000
    H104     H        0.51142    0.65263    0.20350    1.000
    H105     H        0.43650    0.88502    0.57088    1.000
    H106     H        0.68597    0.00365    0.68218    1.000
    H107     H        0.59169    0.91464    0.69383    1.000
    H108     H        0.51142    0.79650    0.44913    1.000
    H109     H        0.93650    0.57088    0.68586    1.000
    H110     H        0.18597    0.68218    0.67853    1.000
    H111     H        0.09169    0.69383    0.77919    1.000
    H112     H        0.01142    0.44913    0.65263    1.000
    H113     H        0.93650    0.31414    0.88502    1.000
    H114     H        0.18597    0.32147    0.00365    1.000
    H115     H        0.09169    0.22081    0.91464    1.000
    H116     H        0.01142    0.34737    0.79650    1.000
    H117     H        0.93650    0.11498    0.42912    1.000
    H118     H        0.18597    0.99635    0.31782    1.000
    H119     H        0.09169    0.08536    0.30617    1.000
    H120     H        0.01142    0.20350    0.55087    1.000
    H121     H        0.65633    0.78282    0.21867    1.000
    H122     H        0.65633    0.43585    0.21718    1.000
    H123     H        0.65633    0.78133    0.56415    1.000
    H124     H        0.15633    0.21718    0.78133    1.000
    H125     H        0.15633    0.56415    0.78282    1.000
    H126     H        0.15633    0.21867    0.43585    1.000
    H127     H        0.34367    0.56415    0.78133    1.000
    H128     H        0.34367    0.21867    0.78282    1.000
    H129     H        0.34367    0.21718    0.43585    1.000
    H130     H        0.84367    0.43585    0.21867    1.000
    H131     H        0.84367    0.78133    0.21718    1.000
    H132     H        0.84367    0.78282    0.56415    1.000
    H133     H        0.50169    0.99854    0.42769    1.000
    H134     H        0.50169    0.42915    0.00146    1.000
    H135     H        0.50169    0.57231    0.57085    1.000
    H136     H        0.00169    0.00146    0.57231    1.000
    H137     H        0.00169    0.57085    0.99854    1.000
    H138     H        0.00169    0.42769    0.42915    1.000
    H139     H        0.49831    0.00146    0.57231    1.000
    H140     H        0.49831    0.57085    0.99854    1.000
    H141     H        0.49831    0.42769    0.42915    1.000
    H142     H        0.99831    0.99854    0.42769    1.000
    H143     H        0.99831    0.42915    0.00146    1.000
    H144     H        0.99831    0.57231    0.57085    1.000
    C145     C        0.49800    0.81200    0.23990    1.000
    C146     C        0.43480    0.84310    0.26860    1.000
    C147     C        0.37870    0.81570    0.23450    1.000
    C148     C        0.71490    0.96630    0.32270    1.000
    C149     C        0.52610    0.97840    0.29480    1.000
    C150     C        0.55480    0.95350    0.23720    1.000
    C151     C        0.53060    0.98370    0.20840    1.000
    C152     C        0.53760    0.83390    0.38800    1.000
    C153     C        0.49800    0.42790    0.18800    1.000
    C154     C        0.43480    0.42550    0.15690    1.000
    C155     C        0.37870    0.41880    0.18430    1.000
    C156     C        0.71490    0.35640    0.03370    1.000
    C157     C        0.52610    0.31640    0.02160    1.000
    C158     C        0.55480    0.28370    0.04650    1.000
    C159     C        0.53060    0.22470    0.01630    1.000
    C160     C        0.53760    0.55410    0.16610    1.000
    C161     C        0.49800    0.76010    0.57210    1.000
    C162     C        0.43480    0.73140    0.57450    1.000
    C163     C        0.37870    0.76550    0.58120    1.000
    C164     C        0.71490    0.67730    0.64360    1.000
    C165     C        0.52610    0.70520    0.68360    1.000
    C166     C        0.55480    0.76280    0.71630    1.000
    C167     C        0.53060    0.79160    0.77530    1.000
    C168     C        0.53760    0.61200    0.44590    1.000
    C169     C        0.99800    0.18800    0.76010    1.000
    C170     C        0.93480    0.15690    0.73140    1.000
    C171     C        0.87870    0.18430    0.76550    1.000
    C172     C        0.21490    0.03370    0.67730    1.000
    C173     C        0.02610    0.02160    0.70520    1.000
    C174     C        0.05480    0.04650    0.76280    1.000
    C175     C        0.03060    0.01630    0.79160    1.000
    C176     C        0.03760    0.16610    0.61200    1.000
    C177     C        0.99800    0.57210    0.81200    1.000
    C178     C        0.93480    0.57450    0.84310    1.000
    C179     C        0.87870    0.58120    0.81570    1.000
    C180     C        0.21490    0.64360    0.96630    1.000
    C181     C        0.02610    0.68360    0.97840    1.000
    C182     C        0.05480    0.71630    0.95350    1.000
    C183     C        0.03060    0.77530    0.98370    1.000
    C184     C        0.03760    0.44590    0.83390    1.000
    C185     C        0.99800    0.23990    0.42790    1.000
    C186     C        0.93480    0.26860    0.42550    1.000
    C187     C        0.87870    0.23450    0.41880    1.000
    C188     C        0.21490    0.32270    0.35640    1.000
    C189     C        0.02610    0.29480    0.31640    1.000
    C190     C        0.05480    0.23720    0.28370    1.000
    C191     C        0.03060    0.20840    0.22470    1.000
    C192     C        0.03760    0.38800    0.55410    1.000
    C193     C        0.50200    0.57210    0.76010    1.000
    C194     C        0.56520    0.57450    0.73140    1.000
    C195     C        0.62130    0.58120    0.76550    1.000
    C196     C        0.28510    0.64360    0.67730    1.000
    C197     C        0.47390    0.68360    0.70520    1.000
    C198     C        0.44520    0.71630    0.76280    1.000
    C199     C        0.46940    0.77530    0.79160    1.000
    C200     C        0.46240    0.44590    0.61200    1.000
    C201     C        0.50200    0.23990    0.81200    1.000
    C202     C        0.56520    0.26860    0.84310    1.000
    C203     C        0.62130    0.23450    0.81570    1.000
    C204     C        0.28510    0.32270    0.96630    1.000
    C205     C        0.47390    0.29480    0.97840    1.000
    C206     C        0.44520    0.23720    0.95350    1.000
    C207     C        0.46940    0.20840    0.98370    1.000
    C208     C        0.46240    0.38800    0.83390    1.000
    C209     C        0.50200    0.18800    0.42790    1.000
    C210     C        0.56520    0.15690    0.42550    1.000
    C211     C        0.62130    0.18430    0.41880    1.000
    C212     C        0.28510    0.03370    0.35640    1.000
    C213     C        0.47390    0.02160    0.31640    1.000
    C214     C        0.44520    0.04650    0.28370    1.000
    C215     C        0.46940    0.01630    0.22470    1.000
    C216     C        0.46240    0.16610    0.55410    1.000
    C217     C        0.00200    0.42790    0.23990    1.000
    C218     C        0.06520    0.42550    0.26860    1.000
    C219     C        0.12130    0.41880    0.23450    1.000
    C220     C        0.78510    0.35640    0.32270    1.000
    C221     C        0.97390    0.31640    0.29480    1.000
    C222     C        0.94520    0.28370    0.23720    1.000
    C223     C        0.96940    0.22470    0.20840    1.000
    C224     C        0.96240    0.55410    0.38800    1.000
    C225     C        0.00200    0.76010    0.18800    1.000
    C226     C        0.06520    0.73140    0.15690    1.000
    C227     C        0.12130    0.76550    0.18430    1.000
    C228     C        0.78510    0.67730    0.03370    1.000
    C229     C        0.97390    0.70520    0.02160    1.000
    C230     C        0.94520    0.76280    0.04650    1.000
    C231     C        0.96940    0.79160    0.01630    1.000
    C232     C        0.96240    0.61200    0.16610    1.000
    C233     C        0.00200    0.81200    0.57210    1.000
    C234     C        0.06520    0.84310    0.57450    1.000
    C235     C        0.12130    0.81570    0.58120    1.000
    C236     C        0.78510    0.96630    0.64360    1.000
    C237     C        0.97390    0.97840    0.68360    1.000
    C238     C        0.94520    0.95350    0.71630    1.000
    C239     C        0.96940    0.98370    0.77530    1.000
    C240     C        0.96240    0.83390    0.44590    1.000
    C241     C        0.50200    0.18800    0.76010    1.000
    C242     C        0.56520    0.15690    0.73140    1.000
    C243     C        0.62130    0.18430    0.76550    1.000
    C244     C        0.28510    0.03370    0.67730    1.000
    C245     C        0.47390    0.02160    0.70520    1.000
    C246     C        0.44520    0.04650    0.76280    1.000
    C247     C        0.46940    0.01630    0.79160    1.000
    C248     C        0.46240    0.16610    0.61200    1.000
    C249     C        0.50200    0.57210    0.81200    1.000
    C250     C        0.56520    0.57450    0.84310    1.000
    C251     C        0.62130    0.58120    0.81570    1.000
    C252     C        0.28510    0.64360    0.96630    1.000
    C253     C        0.47390    0.68360    0.97840    1.000
    C254     C        0.44520    0.71630    0.95350    1.000
    C255     C        0.46940    0.77530    0.98370    1.000
    C256     C        0.46240    0.44590    0.83390    1.000
    C257     C        0.50200    0.23990    0.42790    1.000
    C258     C        0.56520    0.26860    0.42550    1.000
    C259     C        0.62130    0.23450    0.41880    1.000
    C260     C        0.28510    0.32270    0.35640    1.000
    C261     C        0.47390    0.29480    0.31640    1.000
    C262     C        0.44520    0.23720    0.28370    1.000
    C263     C        0.46940    0.20840    0.22470    1.000
    C264     C        0.46240    0.38800    0.55410    1.000
    C265     C        0.00200    0.81200    0.23990    1.000
    C266     C        0.06520    0.84310    0.26860    1.000
    C267     C        0.12130    0.81570    0.23450    1.000
    C268     C        0.78510    0.96630    0.32270    1.000
    C269     C        0.97390    0.97840    0.29480    1.000
    C270     C        0.94520    0.95350    0.23720    1.000
    C271     C        0.96940    0.98370    0.20840    1.000
    C272     C        0.96240    0.83390    0.38800    1.000
    C273     C        0.00200    0.42790    0.18800    1.000
    C274     C        0.06520    0.42550    0.15690    1.000
    C275     C        0.12130    0.41880    0.18430    1.000
    C276     C        0.78510    0.35640    0.03370    1.000
    C277     C        0.97390    0.31640    0.02160    1.000
    C278     C        0.94520    0.28370    0.04650    1.000
    C279     C        0.96940    0.22470    0.01630    1.000
    C280     C        0.96240    0.55410    0.16610    1.000
    C281     C        0.00200    0.76010    0.57210    1.000
    C282     C        0.06520    0.73140    0.57450    1.000
    C283     C        0.12130    0.76550    0.58120    1.000
    C284     C        0.78510    0.67730    0.64360    1.000
    C285     C        0.97390    0.70520    0.68360    1.000
    C286     C        0.94520    0.76280    0.71630    1.000
    C287     C        0.96940    0.79160    0.77530    1.000
    C288     C        0.96240    0.61200    0.44590    1.000
    C289     C        0.49800    0.42790    0.23990    1.000
    C290     C        0.43480    0.42550    0.26860    1.000
    C291     C        0.37870    0.41880    0.23450    1.000
    C292     C        0.71490    0.35640    0.32270    1.000
    C293     C        0.52610    0.31640    0.29480    1.000
    C294     C        0.55480    0.28370    0.23720    1.000
    C295     C        0.53060    0.22470    0.20840    1.000
    C296     C        0.53760    0.55410    0.38800    1.000
    C297     C        0.49800    0.76010    0.18800    1.000
    C298     C        0.43480    0.73140    0.15690    1.000
    C299     C        0.37870    0.76550    0.18430    1.000
    C300     C        0.71490    0.67730    0.03370    1.000
    C301     C        0.52610    0.70520    0.02160    1.000
    C302     C        0.55480    0.76280    0.04650    1.000
    C303     C        0.53060    0.79160    0.01630    1.000
    C304     C        0.53760    0.61200    0.16610    1.000
    C305     C        0.49800    0.81200    0.57210    1.000
    C306     C        0.43480    0.84310    0.57450    1.000
    C307     C        0.37870    0.81570    0.58120    1.000
    C308     C        0.71490    0.96630    0.64360    1.000
    C309     C        0.52610    0.97840    0.68360    1.000
    C310     C        0.55480    0.95350    0.71630    1.000
    C311     C        0.53060    0.98370    0.77530    1.000
    C312     C        0.53760    0.83390    0.44590    1.000
    C313     C        0.99800    0.57210    0.76010    1.000
    C314     C        0.93480    0.57450    0.73140    1.000
    C315     C        0.87870    0.58120    0.76550    1.000
    C316     C        0.21490    0.64360    0.67730    1.000
    C317     C        0.02610    0.68360    0.70520    1.000
    C318     C        0.05480    0.71630    0.76280    1.000
    C319     C        0.03060    0.77530    0.79160    1.000
    C320     C        0.03760    0.44590    0.61200    1.000
    C321     C        0.99800    0.23990    0.81200    1.000
    C322     C        0.93480    0.26860    0.84310    1.000
    C323     C        0.87870    0.23450    0.81570    1.000
    C324     C        0.21490    0.32270    0.96630    1.000
    C325     C        0.02610    0.29480    0.97840    1.000
    C326     C        0.05480    0.23720    0.95350    1.000
    C327     C        0.03060    0.20840    0.98370    1.000
    C328     C        0.03760    0.38800    0.83390    1.000
    C329     C        0.99800    0.18800    0.42790    1.000
    C330     C        0.93480    0.15690    0.42550    1.000
    C331     C        0.87870    0.18430    0.41880    1.000
    C332     C        0.21490    0.03370    0.35640    1.000
    C333     C        0.02610    0.02160    0.31640    1.000
    C334     C        0.05480    0.04650    0.28370    1.000
    C335     C        0.03060    0.01630    0.22470    1.000
    C336     C        0.03760    0.16610    0.55410    1.000
    C337     C        0.59860    0.78375    0.21625    1.000
    C338     C        0.59860    0.43250    0.21625    1.000
    C339     C        0.59860    0.78375    0.56750    1.000
    C340     C        0.09860    0.21625    0.78375    1.000
    C341     C        0.09860    0.56750    0.78375    1.000
    C342     C        0.09860    0.21625    0.43250    1.000
    C343     C        0.40140    0.56750    0.78375    1.000
    C344     C        0.40140    0.21625    0.78375    1.000
    C345     C        0.40140    0.21625    0.43250    1.000
    C346     C        0.90140    0.43250    0.21625    1.000
    C347     C        0.90140    0.78375    0.21625    1.000
    C348     C        0.90140    0.78375    0.56750    1.000
    C349     C        0.75000    0.89080    0.32260    1.000
    C350     C        0.75000    0.43180    0.10920    1.000
    C351     C        0.75000    0.67740    0.56820    1.000
    C352     C        0.25000    0.10920    0.67740    1.000
    C353     C        0.25000    0.56820    0.89080    1.000
    C354     C        0.25000    0.32260    0.43180    1.000
    C355     C        0.25000    0.56820    0.67740    1.000
    C356     C        0.25000    0.32260    0.89080    1.000
    C357     C        0.25000    0.10920    0.43180    1.000
    C358     C        0.75000    0.43180    0.32260    1.000
    C359     C        0.75000    0.67740    0.10920    1.000
    C360     C        0.75000    0.89080    0.56820    1.000
    C361     C        0.50000    0.00000    0.38460    1.000
    C362     C        0.50000    0.38460    0.00000    1.000
    C363     C        0.50000    0.61540    0.61540    1.000
    C364     C        0.00000    0.00000    0.61540    1.000
    C365     C        0.00000    0.61540    0.00000    1.000
    C366     C        0.00000    0.38460    0.38460    1.000
    C367     C        0.50000    0.00000    0.61540    1.000
    C368     C        0.50000    0.61540    0.00000    1.000
    C369     C        0.50000    0.38460    0.38460    1.000
    C370     C        0.00000    0.00000    0.38460    1.000
    C371     C        0.00000    0.38460    0.00000    1.000
    C372     C        0.00000    0.61540    0.61540    1.000
    C373     C        0.59270    0.90900    0.45450    1.000
    C374     C        0.59270    0.54550    0.09100    1.000
    C375     C        0.59270    0.54550    0.45450    1.000
    C376     C        0.09270    0.09100    0.54550    1.000
    C377     C        0.09270    0.45450    0.90900    1.000
    C378     C        0.09270    0.45450    0.54550    1.000
    C379     C        0.40730    0.45450    0.54550    1.000
    C380     C        0.40730    0.45450    0.90900    1.000
    C381     C        0.40730    0.09100    0.54550    1.000
    C382     C        0.90730    0.54550    0.45450    1.000
    C383     C        0.90730    0.54550    0.09100    1.000
    C384     C        0.90730    0.90900    0.45450    1.000
    Br385    Br       0.29890    0.71640    0.58400    1.000
    Br386    Br       0.55410    0.86870    0.83160    1.000
    Br387    Br       0.79890    0.13240    0.71640    1.000
    Br388    Br       0.05410    0.03710    0.86870    1.000
    Br389    Br       0.79890    0.58400    0.86760    1.000
    Br390    Br       0.05410    0.83160    0.96290    1.000
    Br391    Br       0.05410    0.13130    0.16840    1.000
    Br392    Br       0.70110    0.58400    0.71640    1.000
    Br393    Br       0.70110    0.28360    0.86760    1.000
    Br394    Br       0.94590    0.16840    0.13130    1.000
    Br395    Br       0.94590    0.86870    0.03710    1.000
    Br396    Br       0.20110    0.86760    0.58400    1.000
    Br397    Br       0.44590    0.03710    0.86870    1.000
    Br398    Br       0.44590    0.83160    0.96290    1.000
    Br399    Br       0.70110    0.28360    0.41600    1.000
    Br400    Br       0.44590    0.13130    0.16840    1.000
    Br401    Br       0.20110    0.86760    0.28360    1.000
    Br402    Br       0.20110    0.41600    0.13240    1.000
    Br403    Br       0.94590    0.86870    0.83160    1.000
    Br404    Br       0.29890    0.41600    0.28360    1.000
    Br405    Br       0.55410    0.16840    0.13130    1.000
    Br406    Br       0.29890    0.71640    0.13240    1.000
    Br407    Br       0.55410    0.86870    0.03710    1.000
    Br408    Br       0.79890    0.13240    0.41600    1.000
    N409     N        0.56410    0.82840    0.25890    1.000
    N410     N        0.69170    0.91780    0.32430    1.000
    N411     N        0.54210    0.96350    0.33790    1.000
    N412     N        0.57380    0.88560    0.39940    1.000
    N413     N        0.56410    0.43050    0.17160    1.000
    N414     N        0.69170    0.40650    0.08220    1.000
    N415     N        0.54210    0.37440    0.03650    1.000
    N416     N        0.57380    0.51380    0.11440    1.000
    N417     N        0.56410    0.74110    0.56950    1.000
    N418     N        0.69170    0.67570    0.59350    1.000
    N419     N        0.54210    0.66210    0.62560    1.000
    N420     N        0.57380    0.60060    0.48620    1.000
    N421     N        0.06410    0.17160    0.74110    1.000
    N422     N        0.19170    0.08220    0.67570    1.000
    N423     N        0.04210    0.03650    0.66210    1.000
    N424     N        0.07380    0.11440    0.60060    1.000
    N425     N        0.06410    0.56950    0.82840    1.000
    N426     N        0.19170    0.59350    0.91780    1.000
    N427     N        0.04210    0.62560    0.96350    1.000
    N428     N        0.07380    0.48620    0.88560    1.000
    N429     N        0.06410    0.25890    0.43050    1.000
    N430     N        0.19170    0.32430    0.40650    1.000
    N431     N        0.04210    0.33790    0.37440    1.000
    N432     N        0.07380    0.39940    0.51380    1.000
    N433     N        0.43590    0.56950    0.74110    1.000
    N434     N        0.30830    0.59350    0.67570    1.000
    N435     N        0.45790    0.62560    0.66210    1.000
    N436     N        0.42620    0.48620    0.60060    1.000
    N437     N        0.43590    0.25890    0.82840    1.000
    N438     N        0.30830    0.32430    0.91780    1.000
    N439     N        0.45790    0.33790    0.96350    1.000
    N440     N        0.42620    0.39940    0.88560    1.000
    N441     N        0.43590    0.17160    0.43050    1.000
    N442     N        0.30830    0.08220    0.40650    1.000
    N443     N        0.45790    0.03650    0.37440    1.000
    N444     N        0.42620    0.11440    0.51380    1.000
    N445     N        0.93590    0.43050    0.25890    1.000
    N446     N        0.80830    0.40650    0.32430    1.000
    N447     N        0.95790    0.37440    0.33790    1.000
    N448     N        0.92620    0.51380    0.39940    1.000
    N449     N        0.93590    0.74110    0.17160    1.000
    N450     N        0.80830    0.67570    0.08220    1.000
    N451     N        0.95790    0.66210    0.03650    1.000
    N452     N        0.92620    0.60060    0.11440    1.000
    N453     N        0.93590    0.82840    0.56950    1.000
    N454     N        0.80830    0.91780    0.59350    1.000
    N455     N        0.95790    0.96350    0.62560    1.000
    N456     N        0.92620    0.88560    0.48620    1.000
    N457     N        0.43590    0.17160    0.74110    1.000
    N458     N        0.30830    0.08220    0.67570    1.000
    N459     N        0.45790    0.03650    0.66210    1.000
    N460     N        0.42620    0.11440    0.60060    1.000
    N461     N        0.43590    0.56950    0.82840    1.000
    N462     N        0.30830    0.59350    0.91780    1.000
    N463     N        0.45790    0.62560    0.96350    1.000
    N464     N        0.42620    0.48620    0.88560    1.000
    N465     N        0.43590    0.25890    0.43050    1.000
    N466     N        0.30830    0.32430    0.40650    1.000
    N467     N        0.45790    0.33790    0.37440    1.000
    N468     N        0.42620    0.39940    0.51380    1.000
    N469     N        0.93590    0.82840    0.25890    1.000
    N470     N        0.80830    0.91780    0.32430    1.000
    N471     N        0.95790    0.96350    0.33790    1.000
    N472     N        0.92620    0.88560    0.39940    1.000
    N473     N        0.93590    0.43050    0.17160    1.000
    N474     N        0.80830    0.40650    0.08220    1.000
    N475     N        0.95790    0.37440    0.03650    1.000
    N476     N        0.92620    0.51380    0.11440    1.000
    N477     N        0.93590    0.74110    0.56950    1.000
    N478     N        0.80830    0.67570    0.59350    1.000
    N479     N        0.95790    0.66210    0.62560    1.000
    N480     N        0.92620    0.60060    0.48620    1.000
    N481     N        0.56410    0.43050    0.25890    1.000
    N482     N        0.69170    0.40650    0.32430    1.000
    N483     N        0.54210    0.37440    0.33790    1.000
    N484     N        0.57380    0.51380    0.39940    1.000
    N485     N        0.56410    0.74110    0.17160    1.000
    N486     N        0.69170    0.67570    0.08220    1.000
    N487     N        0.54210    0.66210    0.03650    1.000
    N488     N        0.57380    0.60060    0.11440    1.000
    N489     N        0.56410    0.82840    0.56950    1.000
    N490     N        0.69170    0.91780    0.59350    1.000
    N491     N        0.54210    0.96350    0.62560    1.000
    N492     N        0.57380    0.88560    0.48620    1.000
    N493     N        0.06410    0.56950    0.74110    1.000
    N494     N        0.19170    0.59350    0.67570    1.000
    N495     N        0.04210    0.62560    0.66210    1.000
    N496     N        0.07380    0.48620    0.60060    1.000
    N497     N        0.06410    0.25890    0.82840    1.000
    N498     N        0.19170    0.32430    0.91780    1.000
    N499     N        0.04210    0.33790    0.96350    1.000
    N500     N        0.07380    0.39940    0.88560    1.000
    N501     N        0.06410    0.17160    0.43050    1.000
    N502     N        0.19170    0.08220    0.40650    1.000
    N503     N        0.04210    0.03650    0.37440    1.000
    N504     N        0.07380    0.11440    0.51380    1.000
    N505     N        0.75000    0.83650    0.32380    1.000
    N506     N        0.75000    0.48730    0.16350    1.000
    N507     N        0.75000    0.67620    0.51270    1.000
    N508     N        0.25000    0.16350    0.67620    1.000
    N509     N        0.25000    0.51270    0.83650    1.000
    N510     N        0.25000    0.32380    0.48730    1.000
    N511     N        0.25000    0.51270    0.67620    1.000
    N512     N        0.25000    0.32380    0.83650    1.000
    N513     N        0.25000    0.16350    0.48730    1.000
    N514     N        0.75000    0.48730    0.32380    1.000
    N515     N        0.75000    0.67620    0.16350    1.000
    N516     N        0.75000    0.83650    0.51270    1.000
    N517     N        0.62730    0.96080    0.48040    1.000
    N518     N        0.62730    0.51960    0.03920    1.000
    N519     N        0.62730    0.51960    0.48040    1.000
    N520     N        0.12730    0.03920    0.51960    1.000
    N521     N        0.12730    0.48040    0.96080    1.000
    N522     N        0.12730    0.48040    0.51960    1.000
    N523     N        0.37270    0.48040    0.51960    1.000
    N524     N        0.37270    0.48040    0.96080    1.000
    N525     N        0.37270    0.03920    0.51960    1.000
    N526     N        0.87270    0.51960    0.48040    1.000
    N527     N        0.87270    0.51960    0.03920    1.000
    N528     N        0.87270    0.96080    0.48040    1.000
    O529     O        0.69560    0.81430    0.32500    1.000
    O530     O        0.63980    0.98500    0.45070    1.000
    O531     O        0.69560    0.51070    0.18570    1.000
    O532     O        0.63980    0.46570    0.01500    1.000
    O533     O        0.69560    0.67500    0.48930    1.000
    O534     O        0.63980    0.54930    0.53430    1.000
    O535     O        0.19560    0.18570    0.67500    1.000
    O536     O        0.13980    0.01500    0.54930    1.000
    O537     O        0.19560    0.48930    0.81430    1.000
    O538     O        0.13980    0.53430    0.98500    1.000
    O539     O        0.19560    0.32500    0.51070    1.000
    O540     O        0.13980    0.45070    0.46570    1.000
    O541     O        0.30440    0.48930    0.67500    1.000
    O542     O        0.36020    0.53430    0.54930    1.000
    O543     O        0.30440    0.32500    0.81430    1.000
    O544     O        0.36020    0.45070    0.98500    1.000
    O545     O        0.30440    0.18570    0.51070    1.000
    O546     O        0.36020    0.01500    0.46570    1.000
    O547     O        0.80440    0.51070    0.32500    1.000
    O548     O        0.86020    0.46570    0.45070    1.000
    O549     O        0.80440    0.67500    0.18570    1.000
    O550     O        0.86020    0.54930    0.01500    1.000
    O551     O        0.80440    0.81430    0.48930    1.000
    O552     O        0.86020    0.98500    0.53430    1.000
    O553     O        0.30440    0.18570    0.67500    1.000
    O554     O        0.36020    0.01500    0.54930    1.000
    O555     O        0.30440    0.48930    0.81430    1.000
    O556     O        0.36020    0.53430    0.98500    1.000
    O557     O        0.30440    0.32500    0.51070    1.000
    O558     O        0.36020    0.45070    0.46570    1.000
    O559     O        0.80440    0.81430    0.32500    1.000
    O560     O        0.86020    0.98500    0.45070    1.000
    O561     O        0.80440    0.51070    0.18570    1.000
    O562     O        0.86020    0.46570    0.01500    1.000
    O563     O        0.80440    0.67500    0.48930    1.000
    O564     O        0.86020    0.54930    0.53430    1.000
    O565     O        0.69560    0.51070    0.32500    1.000
    O566     O        0.63980    0.46570    0.45070    1.000
    O567     O        0.69560    0.67500    0.18570    1.000
    O568     O        0.63980    0.54930    0.01500    1.000
    O569     O        0.69560    0.81430    0.48930    1.000
    O570     O        0.63980    0.98500    0.53430    1.000
    O571     O        0.19560    0.48930    0.67500    1.000
    O572     O        0.13980    0.53430    0.54930    1.000
    O573     O        0.19560    0.32500    0.81430    1.000
    O574     O        0.13980    0.45070    0.98500    1.000
    O575     O        0.19560    0.18570    0.51070    1.000
    O576     O        0.13980    0.01500    0.46570    1.000
    H577     H        0.32647    0.83692    0.24948    1.000
    H578     H        0.56082    0.98235    0.17034    1.000
    H579     H        0.32647    0.41256    0.16308    1.000
    H580     H        0.56082    0.18799    0.01765    1.000
    H581     H        0.82647    0.24948    0.41256    1.000
    H582     H        0.43739    0.81043    0.82940    1.000
    H583     H        0.43739    0.17060    0.98102    1.000
    H584     H        0.67353    0.16308    0.41256    1.000
    H585     H        0.43918    0.01765    0.18799    1.000
    H586     H        0.17353    0.41256    0.24948    1.000
    H587     H        0.17353    0.75052    0.16308    1.000
    H588     H        0.93918    0.98235    0.81201    1.000
    H589     H        0.67096    0.15941    0.74654    1.000
    H590     H        0.67096    0.58713    0.84059    1.000
    H591     H        0.93918    0.98235    0.17034    1.000
    H592     H        0.93918    0.18799    0.01765    1.000
    H593     H        0.17096    0.74654    0.58713    1.000
    H594     H        0.32904    0.84059    0.58713    1.000
    H595     H        0.56082    0.98235    0.81201    1.000
    H596     H        0.82904    0.58713    0.74654    1.000
    H597     H        0.06261    0.81043    0.82940    1.000
    H598     H        0.82904    0.25346    0.84059    1.000
    H599     H        0.06261    0.17060    0.98102    1.000
    H600     H        0.06082    0.01765    0.18799    1.000
