# CIF file generated by openbabel 3.1.0, see https://openbabel.org
data_I
_chemical_name_common 'XIMPOA_clean'
_cell_length_a 14.552
_cell_length_b 15.639
_cell_length_c 16.764
_cell_angle_alpha 90
_cell_angle_beta 90
_cell_angle_gamma 90
_space_group_name_H-M_alt 'P 1'
_space_group_name_Hall 'P 1'
loop_
    _symmetry_equiv_pos_as_xyz
    x,y,z
loop_
    _atom_site_label
    _atom_site_type_symbol
    _atom_site_fract_x
    _atom_site_fract_y
    _atom_site_fract_z
    _atom_site_occupancy
    Zn1      Zn       0.65608    0.47633    0.21036    1.000
    Zn2      Zn       0.91323    0.97403    0.26238    1.000
    Zn3      Zn       0.15608    0.02367    0.78964    1.000
    Zn4      Zn       0.41323    0.52597    0.73762    1.000
    H1       H        0.73480    0.71230    0.38430    1.000
    H2       H        0.80810    0.71010    0.23320    1.000
    H3       H        0.54900    0.50370    0.96590    1.000
    H4       H        0.56380    0.33440    0.92760    1.000
    H5       H        0.77320    0.31610    0.14540    1.000
    H6       H        0.90190    0.25200    0.21780    1.000
    H7       H        0.80130    0.44150    0.34530    1.000
    H8       H        0.99540    0.29940    0.34380    1.000
    H9       H        0.95770    0.37670    0.39330    1.000
    H10      H        0.90260    0.34660    0.52220    1.000
    H11      H        0.86510    0.24980    0.62130    1.000
    H12      H        0.86270    0.06030    0.46180    1.000
    H13      H        0.89780    0.15770    0.36060    1.000
    H14      H        0.83940    0.02370    0.59220    1.000
    H15      H        0.77960    0.09190    0.63700    1.000
    H16      H        0.99380    0.14810    0.83720    1.000
    H17      H        0.85330    0.17040    0.76030    1.000
    H18      H        0.00830    0.00140    0.64740    1.000
    H19      H        0.98520    0.89110    0.42990    1.000
    H20      H        0.10890    0.95250    0.50910    1.000
    H21      H        0.07590    0.09210    0.31490    1.000
    H22      H        0.23610    0.07150    0.47590    1.000
    H23      H        0.22160    0.12500    0.39790    1.000
    H24      H        0.13750    0.10960    0.59590    1.000
    H25      H        0.09480    0.22420    0.67500    1.000
    H26      H        0.12160    0.38100    0.48740    1.000
    H27      H        0.16040    0.26560    0.40720    1.000
    H28      H        0.02800    0.37620    0.67420    1.000
    H29      H        0.06530    0.43930    0.60900    1.000
    H30      H        0.29290    0.39220    0.83460    1.000
    H31      H        0.14280    0.33650    0.79280    1.000
    H32      H        0.23180    0.49740    0.62950    1.000
    H33      H        0.23480    0.78770    0.61570    1.000
    H34      H        0.30810    0.78990    0.76680    1.000
    H35      H        0.04900    0.99630    0.03410    1.000
    H36      H        0.06380    0.16560    0.07240    1.000
    H37      H        0.27320    0.18390    0.85460    1.000
    H38      H        0.40190    0.24800    0.78220    1.000
    H39      H        0.30130    0.05850    0.65470    1.000
    H40      H        0.49540    0.20060    0.65620    1.000
    H41      H        0.45770    0.12330    0.60670    1.000
    H42      H        0.40260    0.15340    0.47780    1.000
    H43      H        0.36510    0.25020    0.37870    1.000
    H44      H        0.36270    0.43970    0.53820    1.000
    H45      H        0.39780    0.34230    0.63940    1.000
    H46      H        0.33940    0.47630    0.40780    1.000
    H47      H        0.27960    0.40810    0.36300    1.000
    H48      H        0.49380    0.35190    0.16280    1.000
    H49      H        0.35330    0.32960    0.23970    1.000
    H50      H        0.50830    0.49860    0.35260    1.000
    H51      H        0.48520    0.60890    0.57010    1.000
    H52      H        0.60890    0.54750    0.49090    1.000
    H53      H        0.57590    0.40790    0.68510    1.000
    H54      H        0.73610    0.42850    0.52410    1.000
    H55      H        0.72160    0.37500    0.60210    1.000
    H56      H        0.63750    0.39040    0.40410    1.000
    H57      H        0.59480    0.27580    0.32500    1.000
    H58      H        0.62160    0.11900    0.51260    1.000
    H59      H        0.66040    0.23440    0.59280    1.000
    H60      H        0.52800    0.12380    0.32580    1.000
    H61      H        0.56530    0.06070    0.39100    1.000
    H62      H        0.79290    0.10780    0.16540    1.000
    H63      H        0.64280    0.16350    0.20720    1.000
    H64      H        0.73180    0.00260    0.37050    1.000
    C1       C        0.70060    0.60860    0.31000    1.000
    C2       C        0.74440    0.69090    0.33320    1.000
    C3       C        0.79680    0.73450    0.28290    1.000
    C4       C        0.83890    0.81910    0.29950    1.000
    C5       C        0.61420    0.42710    0.05240    1.000
    C6       C        0.56610    0.44730    0.97500    1.000
    C7       C        0.54680    0.39110    0.91980    1.000
    C8       C        0.49860    0.41520    0.84530    1.000
    C9       C        0.79490    0.33350    0.19500    1.000
    C10      C        0.86570    0.29740    0.23490    1.000
    C11      C        0.80960    0.40200    0.30440    1.000
    C12      C        0.94060    0.32320    0.36810    1.000
    C13      C        0.90660    0.26200    0.43180    1.000
    C14      C        0.89530    0.28910    0.50960    1.000
    C15      C        0.87310    0.23080    0.56920    1.000
    C16      C        0.86280    0.14550    0.55200    1.000
    C17      C        0.87130    0.11780    0.47400    1.000
    C18      C        0.89280    0.17630    0.41310    1.000
    C19      C        0.84040    0.08030    0.61600    1.000
    C20      C        0.97890    0.12130    0.78940    1.000
    C21      C        0.90120    0.13360    0.74730    1.000
    C22      C        0.98730    0.04020    0.68520    1.000
    C23      C        0.01900    0.93960    0.41680    1.000
    C24      C        0.08720    0.97280    0.46050    1.000
    C25      C        0.06830    0.04960    0.35320    1.000
    C26      C        0.19090    0.10270    0.44490    1.000
    C27      C        0.15640    0.17630    0.49370    1.000
    C28      C        0.13470    0.16420    0.57400    1.000
    C29      C        0.10920    0.23280    0.62160    1.000
    C30      C        0.10510    0.31510    0.58870    1.000
    C31      C        0.12460    0.32650    0.50940    1.000
    C32      C        0.14910    0.25720    0.46130    1.000
    C33      C        0.08100    0.39040    0.64180    1.000
    C34      C        0.26200    0.40660    0.78800    1.000
    C35      C        0.17900    0.37550    0.76510    1.000
    C36      C        0.22900    0.46450    0.67560    1.000
    C37      C        0.20060    0.89140    0.69000    1.000
    C38      C        0.24440    0.80910    0.66680    1.000
    C39      C        0.29680    0.76550    0.71710    1.000
    C40      C        0.33890    0.68090    0.70050    1.000
    C41      C        0.11420    0.07290    0.94760    1.000
    C42      C        0.06610    0.05270    0.02500    1.000
    C43      C        0.04680    0.10890    0.08020    1.000
    C44      C        0.99860    0.08480    0.15470    1.000
    C45      C        0.29490    0.16650    0.80500    1.000
    C46      C        0.36570    0.20260    0.76510    1.000
    C47      C        0.30960    0.09800    0.69560    1.000
    C48      C        0.44060    0.17680    0.63190    1.000
    C49      C        0.40660    0.23800    0.56820    1.000
    C50      C        0.39530    0.21090    0.49040    1.000
    C51      C        0.37310    0.26920    0.43080    1.000
    C52      C        0.36280    0.35450    0.44800    1.000
    C53      C        0.37130    0.38220    0.52600    1.000
    C54      C        0.39280    0.32370    0.58690    1.000
    C55      C        0.34040    0.41970    0.38400    1.000
    C56      C        0.47890    0.37870    0.21060    1.000
    C57      C        0.40120    0.36640    0.25270    1.000
    C58      C        0.48730    0.45980    0.31480    1.000
    C59      C        0.51900    0.56040    0.58320    1.000
    C60      C        0.58720    0.52720    0.53950    1.000
    C61      C        0.56830    0.45040    0.64680    1.000
    C62      C        0.69090    0.39730    0.55510    1.000
    C63      C        0.65640    0.32370    0.50630    1.000
    C64      C        0.63470    0.33580    0.42600    1.000
    C65      C        0.60920    0.26720    0.37840    1.000
    C66      C        0.60510    0.18490    0.41130    1.000
    C67      C        0.62460    0.17350    0.49060    1.000
    C68      C        0.64910    0.24280    0.53870    1.000
    C69      C        0.58100    0.10960    0.35820    1.000
    C70      C        0.76200    0.09340    0.21200    1.000
    C71      C        0.67900    0.12450    0.23490    1.000
    C72      C        0.72900    0.03550    0.32440    1.000
    N1       N        0.76000    0.40010    0.23950    1.000
    N2       N        0.87330    0.34100    0.30520    1.000
    N3       N        0.03310    0.06230    0.74970    1.000
    N4       N        0.90630    0.08100    0.68120    1.000
    N5       N        0.00660    0.98850    0.34910    1.000
    N6       N        0.11880    0.04290    0.41930    1.000
    N7       N        0.29310    0.46320    0.73063    1.000
    N8       N        0.15890    0.41240    0.69390    1.000
    N9       N        0.26000    0.09990    0.76050    1.000
    N10      N        0.37330    0.15900    0.69480    1.000
    N11      N        0.53310    0.43770    0.25030    1.000
    N12      N        0.40630    0.41900    0.31880    1.000
    N13      N        0.50660    0.51150    0.65090    1.000
    N14      N        0.61880    0.45710    0.58070    1.000
    N15      N        0.79310    0.03680    0.26937    1.000
    N16      N        0.65890    0.08760    0.30610    1.000
    O1       O        0.69640    0.59167    0.23663    1.000
    O2       O        0.67500    0.55840    0.36230    1.000
    O3       O        0.87780    0.85459    0.23950    1.000
    O4       O        0.83210    0.85418    0.36623    1.000
    O5       O        0.62710    0.49240    0.09722    1.000
    O6       O        0.63470    0.35280    0.07060    1.000
    O7       O        0.46530    0.49190    0.84172    1.000
    O8       O        0.49370    0.36209    0.79130    1.000
    O9       O        0.19640    0.90833    0.76337    1.000
    O10      O        0.17500    0.94160    0.63770    1.000
    O11      O        0.37780    0.64541    0.76050    1.000
    O12      O        0.33210    0.64582    0.63377    1.000
    O13      O        0.12710    0.00760    0.90278    1.000
    O14      O        0.13470    0.14720    0.92940    1.000
    O15      O        0.96530    0.00810    0.15828    1.000
    O16      O        0.99370    0.13791    0.20870    1.000
    Zn5      Zn       0.84392    0.52367    0.71036    1.000
    Zn6      Zn       0.58677    0.02597    0.76238    1.000
    Zn7      Zn       0.34392    0.97633    0.28964    1.000
    Zn8      Zn       0.08677    0.47403    0.23762    1.000
    H65      H        0.76520    0.28770    0.88430    1.000
    H66      H        0.69190    0.28990    0.73320    1.000
    H67      H        0.95100    0.49630    0.46590    1.000
    H68      H        0.93620    0.66560    0.42760    1.000
    H69      H        0.72680    0.68390    0.64540    1.000
    H70      H        0.59810    0.74800    0.71780    1.000
    H71      H        0.69870    0.55850    0.84530    1.000
    H72      H        0.50460    0.70060    0.84380    1.000
    H73      H        0.54230    0.62330    0.89330    1.000
    H74      H        0.59740    0.65340    0.02220    1.000
    H75      H        0.63490    0.75020    0.12130    1.000
    H76      H        0.63730    0.93970    0.96180    1.000
    H77      H        0.60220    0.84230    0.86060    1.000
    H78      H        0.66060    0.97630    0.09220    1.000
    H79      H        0.72040    0.90810    0.13700    1.000
    H80      H        0.50620    0.85190    0.33720    1.000
    H81      H        0.64670    0.82960    0.26030    1.000
    H82      H        0.49170    0.99860    0.14740    1.000
    H83      H        0.51480    0.10890    0.92990    1.000
    H84      H        0.39110    0.04750    0.00910    1.000
    H85      H        0.42410    0.90790    0.81490    1.000
    H86      H        0.26390    0.92850    0.97590    1.000
    H87      H        0.27840    0.87500    0.89790    1.000
    H88      H        0.36250    0.89040    0.09590    1.000
    H89      H        0.40520    0.77580    0.17500    1.000
    H90      H        0.37840    0.61900    0.98740    1.000
    H91      H        0.33960    0.73440    0.90720    1.000
    H92      H        0.47200    0.62380    0.17420    1.000
    H93      H        0.43470    0.56070    0.10900    1.000
    H94      H        0.20710    0.60780    0.33460    1.000
    H95      H        0.35720    0.66350    0.29280    1.000
    H96      H        0.26820    0.50260    0.12950    1.000
    H97      H        0.26520    0.21230    0.11570    1.000
    H98      H        0.19190    0.21010    0.26680    1.000
    H99      H        0.45100    0.00370    0.53410    1.000
    H100     H        0.43620    0.83440    0.57240    1.000
    H101     H        0.22680    0.81610    0.35460    1.000
    H102     H        0.09810    0.75200    0.28220    1.000
    H103     H        0.19870    0.94150    0.15470    1.000
    H104     H        0.00460    0.79940    0.15620    1.000
    H105     H        0.04230    0.87670    0.10670    1.000
    H106     H        0.09740    0.84660    0.97780    1.000
    H107     H        0.13490    0.74980    0.87870    1.000
    H108     H        0.13730    0.56030    0.03820    1.000
    H109     H        0.10220    0.65770    0.13940    1.000
    H110     H        0.16060    0.52370    0.90780    1.000
    H111     H        0.22040    0.59190    0.86300    1.000
    H112     H        0.00620    0.64810    0.66280    1.000
    H113     H        0.14670    0.67040    0.73970    1.000
    H114     H        0.99170    0.50140    0.85260    1.000
    H115     H        0.01480    0.39110    0.07010    1.000
    H116     H        0.89110    0.45250    0.99090    1.000
    H117     H        0.92410    0.59210    0.18510    1.000
    H118     H        0.76390    0.57150    0.02410    1.000
    H119     H        0.77840    0.62500    0.10210    1.000
    H120     H        0.86250    0.60960    0.90410    1.000
    H121     H        0.90520    0.72420    0.82500    1.000
    H122     H        0.87840    0.88100    0.01260    1.000
    H123     H        0.83960    0.76560    0.09280    1.000
    H124     H        0.97200    0.87620    0.82580    1.000
    H125     H        0.93470    0.93930    0.89100    1.000
    H126     H        0.70710    0.89220    0.66540    1.000
    H127     H        0.85720    0.83650    0.70720    1.000
    H128     H        0.76820    0.99740    0.87050    1.000
    C73      C        0.79940    0.39140    0.81000    1.000
    C74      C        0.75560    0.30910    0.83320    1.000
    C75      C        0.70320    0.26550    0.78290    1.000
    C76      C        0.66110    0.18090    0.79950    1.000
    C77      C        0.88580    0.57290    0.55240    1.000
    C78      C        0.93390    0.55270    0.47500    1.000
    C79      C        0.95320    0.60890    0.41980    1.000
    C80      C        0.00140    0.58480    0.34530    1.000
    C81      C        0.70510    0.66650    0.69500    1.000
    C82      C        0.63430    0.70260    0.73490    1.000
    C83      C        0.69040    0.59800    0.80440    1.000
    C84      C        0.55940    0.67680    0.86810    1.000
    C85      C        0.59340    0.73800    0.93180    1.000
    C86      C        0.60470    0.71090    0.00960    1.000
    C87      C        0.62690    0.76920    0.06920    1.000
    C88      C        0.63720    0.85450    0.05200    1.000
    C89      C        0.62870    0.88220    0.97400    1.000
    C90      C        0.60720    0.82370    0.91310    1.000
    C91      C        0.65960    0.91970    0.11600    1.000
    C92      C        0.52110    0.87870    0.28940    1.000
    C93      C        0.59880    0.86640    0.24730    1.000
    C94      C        0.51270    0.95980    0.18520    1.000
    C95      C        0.48100    0.06040    0.91680    1.000
    C96      C        0.41280    0.02720    0.96050    1.000
    C97      C        0.43170    0.95040    0.85320    1.000
    C98      C        0.30910    0.89730    0.94490    1.000
    C99      C        0.34360    0.82370    0.99370    1.000
    C100     C        0.36530    0.83580    0.07400    1.000
    C101     C        0.39080    0.76720    0.12160    1.000
    C102     C        0.39490    0.68490    0.08870    1.000
    C103     C        0.37540    0.67350    0.00940    1.000
    C104     C        0.35090    0.74280    0.96130    1.000
    C105     C        0.41900    0.60960    0.14180    1.000
    C106     C        0.23800    0.59340    0.28800    1.000
    C107     C        0.32100    0.62450    0.26510    1.000
    C108     C        0.27100    0.53550    0.17560    1.000
    C109     C        0.29940    0.10860    0.19000    1.000
    C110     C        0.25560    0.19090    0.16680    1.000
    C111     C        0.20320    0.23450    0.21710    1.000
    C112     C        0.16110    0.31910    0.20050    1.000
    C113     C        0.38580    0.92710    0.44760    1.000
    C114     C        0.43390    0.94730    0.52500    1.000
    C115     C        0.45320    0.89110    0.58020    1.000
    C116     C        0.50140    0.91520    0.65470    1.000
    C117     C        0.20510    0.83350    0.30500    1.000
    C118     C        0.13430    0.79740    0.26510    1.000
    C119     C        0.19040    0.90200    0.19560    1.000
    C120     C        0.05940    0.82320    0.13190    1.000
    C121     C        0.09340    0.76200    0.06820    1.000
    C122     C        0.10470    0.78910    0.99040    1.000
    C123     C        0.12690    0.73080    0.93080    1.000
    C124     C        0.13720    0.64550    0.94800    1.000
    C125     C        0.12870    0.61780    0.02600    1.000
    C126     C        0.10720    0.67630    0.08690    1.000
    C127     C        0.15960    0.58030    0.88400    1.000
    C128     C        0.02110    0.62130    0.71060    1.000
    C129     C        0.09880    0.63360    0.75270    1.000
    C130     C        0.01270    0.54020    0.81480    1.000
    C131     C        0.98100    0.43960    0.08320    1.000
    C132     C        0.91280    0.47280    0.03950    1.000
    C133     C        0.93170    0.54960    0.14680    1.000
    C134     C        0.80910    0.60270    0.05510    1.000
    C135     C        0.84360    0.67630    0.00630    1.000
    C136     C        0.86530    0.66420    0.92600    1.000
    C137     C        0.89080    0.73280    0.87840    1.000
    C138     C        0.89490    0.81510    0.91130    1.000
    C139     C        0.87540    0.82650    0.99060    1.000
    C140     C        0.85090    0.75720    0.03870    1.000
    C141     C        0.91900    0.89040    0.85820    1.000
    C142     C        0.73800    0.90660    0.71200    1.000
    C143     C        0.82100    0.87550    0.73490    1.000
    C144     C        0.77100    0.96450    0.82440    1.000
    N17      N        0.74000    0.59990    0.73950    1.000
    N18      N        0.62670    0.65900    0.80520    1.000
    N19      N        0.46690    0.93770    0.24970    1.000
    N20      N        0.59370    0.91900    0.18120    1.000
    N21      N        0.49340    0.01150    0.84910    1.000
    N22      N        0.38120    0.95710    0.91930    1.000
    N23      N        0.20690    0.53680    0.23063    1.000
    N24      N        0.34110    0.58760    0.19390    1.000
    N25      N        0.24000    0.90010    0.26050    1.000
    N26      N        0.12670    0.84100    0.19480    1.000
    N27      N        0.96690    0.56230    0.75030    1.000
    N28      N        0.09370    0.58100    0.81880    1.000
    N29      N        0.99340    0.48850    0.15090    1.000
    N30      N        0.88120    0.54290    0.08070    1.000
    N31      N        0.70690    0.96320    0.76937    1.000
    N32      N        0.84110    0.91240    0.80610    1.000
    O17      O        0.80360    0.40833    0.73663    1.000
    O18      O        0.82500    0.44160    0.86230    1.000
    O19      O        0.62220    0.14541    0.73950    1.000
    O20      O        0.66790    0.14582    0.86623    1.000
    O21      O        0.87290    0.50760    0.59722    1.000
    O22      O        0.86530    0.64720    0.57060    1.000
    O23      O        0.03470    0.50810    0.34172    1.000
    O24      O        0.00630    0.63791    0.29130    1.000
    O25      O        0.30360    0.09167    0.26337    1.000
    O26      O        0.32500    0.05840    0.13770    1.000
    O27      O        0.12220    0.35459    0.26050    1.000
    O28      O        0.16790    0.35418    0.13377    1.000
    O29      O        0.37290    0.99240    0.40278    1.000
    O30      O        0.36530    0.85280    0.42940    1.000
    O31      O        0.53470    0.99190    0.65828    1.000
    O32      O        0.50630    0.86209    0.70870    1.000
