# CIF file generated by openbabel 3.1.0, see https://openbabel.org
data_I
_chemical_name_common 'ELOFIU_charged'
_cell_length_a 9.6263
_cell_length_b 9.6263
_cell_length_c 12.5719
_cell_angle_alpha 106.22
_cell_angle_beta 106.22
_cell_angle_gamma 105.689
_space_group_name_H-M_alt 'P 1'
_space_group_name_Hall 'P 1'
loop_
    _symmetry_equiv_pos_as_xyz
    x,y,z
loop_
    _atom_site_label
    _atom_site_type_symbol
    _atom_site_fract_x
    _atom_site_fract_y
    _atom_site_fract_z
    _atom_site_occupancy
    Ca1      Ca       0.62500    0.87500    0.75000    1.000
    Ca2      Ca       0.37500    0.12500    0.25000    1.000
    H1       H        0.10720    0.00460    0.94080    1.000
    H2       H        0.05020    0.23900    0.99040    1.000
    H3       H        0.00800    0.15380    0.85240    1.000
    H4       H        0.91780    0.80020    0.82600    1.000
    H5       H        0.81180    0.20420    0.90800    1.000
    H6       H        0.33360    0.93620    0.94080    1.000
    H7       H        0.44020    0.75140    0.99040    1.000
    H8       H        0.34440    0.69860    0.85240    1.000
    H9       H        0.40820    0.02580    0.82600    1.000
    H10      H        0.59620    0.70380    0.90800    1.000
    H11      H        0.49540    0.39280    0.55920    1.000
    H12      H        0.26100    0.44980    0.50960    1.000
    H13      H        0.34620    0.49200    0.64760    1.000
    H14      H        0.69980    0.58220    0.67400    1.000
    H15      H        0.29580    0.68820    0.59200    1.000
    H16      H        0.56380    0.16640    0.55920    1.000
    H17      H        0.74860    0.05980    0.50960    1.000
    H18      H        0.80140    0.15560    0.64760    1.000
    H19      H        0.47420    0.09180    0.67400    1.000
    H20      H        0.79620    0.90380    0.59200    1.000
    H21      H        0.89280    0.99540    0.05920    1.000
    H22      H        0.94980    0.76100    0.00960    1.000
    H23      H        0.99200    0.84620    0.14760    1.000
    H24      H        0.08220    0.19980    0.17400    1.000
    H25      H        0.18820    0.79580    0.09200    1.000
    H26      H        0.66640    0.06380    0.05920    1.000
    H27      H        0.55980    0.24860    0.00960    1.000
    H28      H        0.65560    0.30140    0.14760    1.000
    H29      H        0.59180    0.97420    0.17400    1.000
    H30      H        0.40380    0.29620    0.09200    1.000
    H31      H        0.50460    0.60720    0.44080    1.000
    H32      H        0.73900    0.55020    0.49040    1.000
    H33      H        0.65380    0.50800    0.35240    1.000
    H34      H        0.30020    0.41780    0.32600    1.000
    H35      H        0.70420    0.31180    0.40800    1.000
    H36      H        0.43620    0.83360    0.44080    1.000
    H37      H        0.25140    0.94020    0.49040    1.000
    H38      H        0.19860    0.84440    0.35240    1.000
    H39      H        0.52580    0.90820    0.32600    1.000
    H40      H        0.20380    0.09620    0.40800    1.000
    C1       C        0.00560    0.00420    0.94140    1.000
    C2       C        0.98273    0.14453    0.92026    1.000
    C3       C        0.43580    0.93720    0.94140    1.000
    C4       C        0.43753    0.77573    0.92026    1.000
    C5       C        0.49580    0.49440    0.55860    1.000
    C6       C        0.35547    0.51727    0.57974    1.000
    C7       C        0.56280    0.06420    0.55860    1.000
    C8       C        0.72427    0.06247    0.57974    1.000
    C9       C        0.99440    0.99580    0.05860    1.000
    C10      C        0.01727    0.85547    0.07974    1.000
    C11      C        0.56420    0.06280    0.05860    1.000
    C12      C        0.56247    0.22427    0.07974    1.000
    C13      C        0.50420    0.50560    0.44140    1.000
    C14      C        0.64453    0.48273    0.42026    1.000
    C15      C        0.43720    0.93580    0.44140    1.000
    C16      C        0.27573    0.93753    0.42026    1.000
    O1       O        0.88322    0.86966    0.84268    1.000
    O2       O        0.82297    0.12267    0.89664    1.000
    O3       O        0.45946    0.97302    0.84268    1.000
    O4       O        0.57367    0.77397    0.89664    1.000
    O5       O        0.63034    0.61678    0.65732    1.000
    O6       O        0.37733    0.67703    0.60336    1.000
    O7       O        0.52698    0.04054    0.65732    1.000
    O8       O        0.72603    0.92633    0.60336    1.000
    O9       O        0.11678    0.13034    0.15732    1.000
    O10      O        0.17703    0.87733    0.10336    1.000
    O11      O        0.54054    0.02698    0.15732    1.000
    O12      O        0.42633    0.22603    0.10336    1.000
    O13      O        0.36966    0.38322    0.34268    1.000
    O14      O        0.62267    0.32297    0.39664    1.000
    O15      O        0.47302    0.95946    0.34268    1.000
    O16      O        0.27397    0.07367    0.39664    1.000
    Cl1      Cl       0.93629    0.56371    0.75000    1.000
    Cl2      Cl       0.31371    0.18629    0.75000    1.000
    Cl3      Cl       0.06371    0.43629    0.25000    1.000
    Cl4      Cl       0.68629    0.81371    0.25000    1.000
