# CIF file generated by openbabel 3.1.0, see https://openbabel.org
data_I
_chemical_name_common 'image0'
_cell_length_a 9.4611
_cell_length_b 13.424
_cell_length_c 13.453
_cell_angle_alpha 67.36
_cell_angle_beta 70.649
_cell_angle_gamma 88.418
_space_group_name_H-M_alt 'P 1'
_space_group_name_Hall 'P 1'
loop_
    _symmetry_equiv_pos_as_xyz
    x,y,z
loop_
    _atom_site_label
    _atom_site_type_symbol
    _atom_site_fract_x
    _atom_site_fract_y
    _atom_site_fract_z
    _atom_site_occupancy
    U1       U        0.97713    0.07786    0.34607    1.000
    P1       P        0.26631    0.14845    0.38341    1.000
    U2       U        0.29129    0.32084    0.07727    1.000
    P2       P        0.52524    0.43247    0.18082    1.000
    P3       P        0.72121    0.94458    0.28023    1.000
    O1       O        0.13590    0.05620    0.46680    1.000
    P4       P        0.99951    0.25095    0.04756    1.000
    O2       O        0.21560    0.19800    0.27780    1.000
    O3       O        0.04800    0.19670    0.15480    1.000
    O4       O        0.76580    0.02310    0.32480    1.000
    C1       C        0.43070    0.01000    0.28980    1.000
    H1       H        0.36400    0.03350    0.24370    1.000
    H2       H        0.38520    0.93830    0.35260    1.000
    C2       C        0.67710    0.38870    0.23320    1.000
    H3       H        0.69390    0.43740    0.26890    1.000
    H4       H        0.64350    0.31510    0.29500    1.000
    O5       O        0.48530    0.35420    0.13460    1.000
    C3       C        0.82940    0.38480    0.14800    1.000
    H5       H        0.90390    0.36650    0.18760    1.000
    H6       H        0.86450    0.45780    0.08510    1.000
    O6       O        0.12980    0.33830    0.96400    1.000
    C4       C        0.58540    0.99760    0.21330    1.000
    H7       H        0.62950    0.06990    0.15130    1.000
    H8       H        0.56950    0.94970    0.17650    1.000
    C5       C        0.82430    0.30210    0.09600    1.000
    H9       H        0.78900    0.33640    0.03030    1.000
    H10      H        0.74870    0.24000    0.15430    1.000
    O7       O        0.56260    0.54970    0.09590    1.000
    C6       C        0.43840    0.09190    0.34210    1.000
    H11      H        0.51850    0.15180    0.28570    1.000
    H12      H        0.46780    0.05550    0.41060    1.000
    O8       O        0.96690    0.16810    0.00410    1.000
    O9       O        0.85430    0.92340    0.19360    1.000
    O10      O        0.38930    0.43130    0.28780    1.000
    H13      H        0.36300    0.36740    0.33740    1.000
    O11      O        0.63980    0.83550    0.38250    1.000
    H14      H        0.67090    0.82500    0.43700    1.000
    O12      O        0.28860    0.22730    0.43320    1.000
    U3       U        0.02287    0.92214    0.65393    1.000
    P5       P        0.73369    0.85155    0.61659    1.000
    U4       U        0.70871    0.67915    0.92273    1.000
    P6       P        0.47476    0.56753    0.81918    1.000
    P7       P        0.27879    0.05542    0.71977    1.000
    O13      O        0.86410    0.94380    0.53320    1.000
    P8       P        0.00049    0.74905    0.95244    1.000
    O14      O        0.78440    0.80200    0.72220    1.000
    O15      O        0.95200    0.80330    0.84520    1.000
    O16      O        0.23420    0.97690    0.67520    1.000
    C7       C        0.56930    0.99000    0.71020    1.000
    H15      H        0.63600    0.96650    0.75630    1.000
    H16      H        0.61480    0.06170    0.64740    1.000
    C8       C        0.32290    0.61130    0.76680    1.000
    H17      H        0.30610    0.56260    0.73110    1.000
    H18      H        0.35650    0.68490    0.70500    1.000
    O17      O        0.51470    0.64580    0.86540    1.000
    C9       C        0.17060    0.61520    0.85200    1.000
    H19      H        0.09610    0.63350    0.81240    1.000
    H20      H        0.13550    0.54220    0.91490    1.000
    O18      O        0.87020    0.66170    0.03600    1.000
    C10      C        0.41460    0.00240    0.78670    1.000
    H21      H        0.37050    0.93010    0.84870    1.000
    H22      H        0.43050    0.05030    0.82350    1.000
    C11      C        0.17570    0.69790    0.90400    1.000
    H23      H        0.21100    0.66360    0.96970    1.000
    H24      H        0.25130    0.76000    0.84570    1.000
    O19      O        0.43740    0.45030    0.90410    1.000
    C12      C        0.56160    0.90810    0.65790    1.000
    H25      H        0.48150    0.84820    0.71430    1.000
    H26      H        0.53220    0.94450    0.58940    1.000
    O20      O        0.03310    0.83190    0.99590    1.000
    O21      O        0.14570    0.07660    0.80640    1.000
    O22      O        0.61070    0.56870    0.71220    1.000
    H27      H        0.63700    0.63260    0.66260    1.000
    O23      O        0.36020    0.16450    0.61750    1.000
    H28      H        0.32910    0.17500    0.56300    1.000
    O24      O        0.71140    0.77270    0.56680    1.000
    U5       U        0.00000    0.00000    0.00000    1.000
