# CIF file generated by openbabel 3.1.0, see https://openbabel.org
data_I
_chemical_name_common 'image0'
_cell_length_a 13.864
_cell_length_b 13.8737
_cell_length_c 21.1162
_cell_angle_alpha 90
_cell_angle_beta 102.531
_cell_angle_gamma 90
_space_group_name_H-M_alt 'P 1'
_space_group_name_Hall 'P 1'
loop_
    _symmetry_equiv_pos_as_xyz
    x,y,z
loop_
    _atom_site_label
    _atom_site_type_symbol
    _atom_site_fract_x
    _atom_site_fract_y
    _atom_site_fract_z
    _atom_site_occupancy
    Ni1      Ni       0.28957    0.21753    0.75773    1.000
    S1       S        0.35650    0.89470    0.69590    1.000
    S2       S        0.24500    0.55690    0.78730    1.000
    S3       S        0.37690    0.92180    0.67240    1.000
    S4       S        0.19040    0.53900    0.74940    1.000
    S5       S        0.18110    0.52950    0.78610    1.000
    N1       N        0.43170    0.21710    0.81870    1.000
    N2       N        0.72940    0.23980    0.00260    1.000
    N3       N        0.82610    0.22590    0.03790    1.000
    N4       N        0.14650    0.28470    0.19600    1.000
    N5       N        0.23090    0.15760    0.83450    1.000
    N6       N        0.01770    0.02600    0.97730    1.000
    N7       N        0.34740    0.27570    0.68090    1.000
    N8       N        0.49010    0.48500    0.52990    1.000
    N9       N        0.31290    0.08210    0.72740    1.000
    N10      N        0.26370    0.35380    0.78640    1.000
    C1       C        0.50680    0.17100    0.80310    1.000
    H1       H        0.49670    0.14080    0.76230    1.000
    C2       C        0.59890    0.16500    0.84350    1.000
    H2       H        0.65000    0.13140    0.83030    1.000
    C3       C        0.61530    0.20870    0.90340    1.000
    C4       C        0.53800    0.25820    0.92060    1.000
    H3       H        0.54660    0.28910    0.96100    1.000
    C5       C        0.44860    0.26120    0.87720    1.000
    H4       H        0.39650    0.29560    0.88870    1.000
    C6       C        0.71350    0.20270    0.94730    1.000
    H5       H        0.76500    0.17060    0.93350    1.000
    C7       C        0.85760    0.29190    0.07500    1.000
    H6       H        0.81680    0.34520    0.07760    1.000
    C8       C        0.10880    0.20840    0.15990    1.000
    H7       H        0.14750    0.15230    0.16250    1.000
    C9       C        0.01800    0.20790    0.11990    1.000
    H8       H        0.99540    0.15280    0.09520    1.000
    C10      C        0.95810    0.28950    0.11560    1.000
    C11      C        0.99640    0.36660    0.15360    1.000
    H9       H        0.95830    0.42270    0.15300    1.000
    C12      C        0.08960    0.36280    0.19220    1.000
    H10      H        0.11420    0.41730    0.21700    1.000
    C13      C        0.15480    0.19430    0.85150    1.000
    H11      H        0.12890    0.25320    0.83340    1.000
    C14      C        0.10830    0.14590    0.89850    1.000
    H12      H        0.05220    0.17160    0.91070    1.000
    C15      C        0.14950    0.06300    0.92340    1.000
    C16      C        0.22900    0.02560    0.90840    1.000
    H13      H        0.25880    0.96930    0.92830    1.000
    C17      C        0.26560    0.07400    0.86200    1.000
    H14      H        0.31960    0.04610    0.84840    1.000
    C18      C        0.10310    0.01020    0.97240    1.000
    H15      H        0.14070    0.96420    0.99980    1.000
    C19      C        0.32270    0.23930    0.62150    1.000
    H16      H        0.28370    0.18340    0.61450    1.000
    C20      C        0.35270    0.28110    0.56930    1.000
    H17      H        0.33340    0.25420    0.52760    1.000
    C21      C        0.41080    0.36240    0.57900    1.000
    C22      C        0.43830    0.39900    0.64150    1.000
    H18      H        0.47890    0.45380    0.65010    1.000
    C23      C        0.40530    0.35400    0.69000    1.000
    H19      H        0.42410    0.37920    0.73220    1.000
    C24      C        0.44130    0.40830    0.52350    1.000
    H20      H        0.42380    0.37930    0.48230    1.000
    C25      C        0.33340    0.01080    0.71030    1.000
    C26      C        0.24490    0.43400    0.78460    1.000
    Ni2      Ni       0.71043    0.71753    0.74227    1.000
    S6       S        0.64350    0.39470    0.80410    1.000
    S7       S        0.75500    0.05690    0.71270    1.000
    S8       S        0.62310    0.42180    0.82760    1.000
    S9       S        0.80960    0.03900    0.75060    1.000
    S10      S        0.81890    0.02950    0.71390    1.000
    N11      N        0.56830    0.71710    0.68130    1.000
    N12      N        0.27060    0.73980    0.49740    1.000
    N13      N        0.17390    0.72590    0.46210    1.000
    N14      N        0.85350    0.78470    0.30400    1.000
    N15      N        0.76910    0.65760    0.66550    1.000
    N16      N        0.98230    0.52600    0.52270    1.000
    N17      N        0.65260    0.77570    0.81910    1.000
    N18      N        0.50990    0.98500    0.97010    1.000
    N19      N        0.68710    0.58210    0.77260    1.000
    N20      N        0.73630    0.85380    0.71360    1.000
    C27      C        0.49320    0.67100    0.69690    1.000
    H21      H        0.50330    0.64080    0.73770    1.000
    C28      C        0.40110    0.66500    0.65650    1.000
    H22      H        0.35000    0.63140    0.66970    1.000
    C29      C        0.38470    0.70870    0.59660    1.000
    C30      C        0.46200    0.75820    0.57940    1.000
    H23      H        0.45340    0.78910    0.53900    1.000
    C31      C        0.55140    0.76120    0.62280    1.000
    H24      H        0.60350    0.79560    0.61130    1.000
    C32      C        0.28650    0.70270    0.55270    1.000
    H25      H        0.23500    0.67060    0.56650    1.000
    C33      C        0.14240    0.79190    0.42500    1.000
    H26      H        0.18320    0.84520    0.42240    1.000
    C34      C        0.89120    0.70840    0.34010    1.000
    H27      H        0.85250    0.65230    0.33750    1.000
    C35      C        0.98200    0.70790    0.38010    1.000
    H28      H        0.00460    0.65280    0.40480    1.000
    C36      C        0.04190    0.78950    0.38440    1.000
    C37      C        0.00360    0.86660    0.34640    1.000
    H29      H        0.04170    0.92270    0.34700    1.000
    C38      C        0.91040    0.86280    0.30780    1.000
    H30      H        0.88580    0.91730    0.28300    1.000
    C39      C        0.84520    0.69430    0.64850    1.000
    H31      H        0.87110    0.75320    0.66660    1.000
    C40      C        0.89170    0.64590    0.60150    1.000
    H32      H        0.94780    0.67160    0.58930    1.000
    C41      C        0.85050    0.56300    0.57660    1.000
    C42      C        0.77100    0.52560    0.59160    1.000
    H33      H        0.74120    0.46930    0.57170    1.000
    C43      C        0.73440    0.57400    0.63800    1.000
    H34      H        0.68040    0.54610    0.65160    1.000
    C44      C        0.89690    0.51020    0.52760    1.000
    H35      H        0.85930    0.46420    0.50020    1.000
    C45      C        0.67730    0.73930    0.87850    1.000
    H36      H        0.71630    0.68340    0.88550    1.000
    C46      C        0.64730    0.78110    0.93070    1.000
    H37      H        0.66660    0.75420    0.97240    1.000
    C47      C        0.58920    0.86240    0.92100    1.000
    C48      C        0.56170    0.89900    0.85850    1.000
    H38      H        0.52110    0.95380    0.84990    1.000
    C49      C        0.59470    0.85400    0.81000    1.000
    H39      H        0.57590    0.87920    0.76780    1.000
    C50      C        0.55870    0.90830    0.97650    1.000
    H40      H        0.57620    0.87930    0.01770    1.000
    C51      C        0.66660    0.51080    0.78970    1.000
    C52      C        0.75510    0.93400    0.71540    1.000
    Ni3      Ni       0.71043    0.78247    0.24227    1.000
    S11      S        0.64350    0.10530    0.30410    1.000
    S12      S        0.75500    0.44310    0.21270    1.000
    S13      S        0.62310    0.07820    0.32760    1.000
    S14      S        0.80960    0.46100    0.25060    1.000
    S15      S        0.81890    0.47050    0.21390    1.000
    N21      N        0.56830    0.78290    0.18130    1.000
    N22      N        0.27060    0.76020    0.99740    1.000
    N23      N        0.17390    0.77410    0.96210    1.000
    N24      N        0.85350    0.71530    0.80400    1.000
    N25      N        0.76910    0.84240    0.16550    1.000
    N26      N        0.98230    0.97400    0.02270    1.000
    N27      N        0.65260    0.72430    0.31910    1.000
    N28      N        0.50990    0.51500    0.47010    1.000
    N29      N        0.68710    0.91790    0.27260    1.000
    N30      N        0.73630    0.64620    0.21360    1.000
    C53      C        0.49320    0.82900    0.19690    1.000
    H41      H        0.50330    0.85920    0.23770    1.000
    C54      C        0.40110    0.83500    0.15650    1.000
    H42      H        0.35000    0.86860    0.16970    1.000
    C55      C        0.38470    0.79130    0.09660    1.000
    C56      C        0.46200    0.74180    0.07940    1.000
    H43      H        0.45340    0.71090    0.03900    1.000
    C57      C        0.55140    0.73880    0.12280    1.000
    H44      H        0.60350    0.70440    0.11130    1.000
    C58      C        0.28650    0.79730    0.05270    1.000
    H45      H        0.23500    0.82940    0.06650    1.000
    C59      C        0.14240    0.70810    0.92500    1.000
    H46      H        0.18320    0.65480    0.92240    1.000
    C60      C        0.89120    0.79160    0.84010    1.000
    H47      H        0.85250    0.84770    0.83750    1.000
    C61      C        0.98200    0.79210    0.88010    1.000
    H48      H        0.00460    0.84720    0.90480    1.000
    C62      C        0.04190    0.71050    0.88440    1.000
    C63      C        0.00360    0.63340    0.84640    1.000
    H49      H        0.04170    0.57730    0.84700    1.000
    C64      C        0.91040    0.63720    0.80780    1.000
    H50      H        0.88580    0.58270    0.78300    1.000
    C65      C        0.84520    0.80570    0.14850    1.000
    H51      H        0.87110    0.74680    0.16660    1.000
    C66      C        0.89170    0.85410    0.10150    1.000
    H52      H        0.94780    0.82840    0.08930    1.000
    C67      C        0.85050    0.93700    0.07660    1.000
    C68      C        0.77100    0.97440    0.09160    1.000
    H53      H        0.74120    0.03070    0.07170    1.000
    C69      C        0.73440    0.92600    0.13800    1.000
    H54      H        0.68040    0.95390    0.15160    1.000
    C70      C        0.89690    0.98980    0.02760    1.000
    H55      H        0.85930    0.03580    0.00020    1.000
    C71      C        0.67730    0.76070    0.37850    1.000
    H56      H        0.71630    0.81660    0.38550    1.000
    C72      C        0.64730    0.71890    0.43070    1.000
    H57      H        0.66660    0.74580    0.47240    1.000
    C73      C        0.58920    0.63760    0.42100    1.000
    C74      C        0.56170    0.60100    0.35850    1.000
    H58      H        0.52110    0.54620    0.34990    1.000
    C75      C        0.59470    0.64600    0.31000    1.000
    H59      H        0.57590    0.62080    0.26780    1.000
    C76      C        0.55870    0.59170    0.47650    1.000
    H60      H        0.57620    0.62070    0.51770    1.000
    C77      C        0.66660    0.98920    0.28970    1.000
    C78      C        0.75510    0.56600    0.21540    1.000
    Ni4      Ni       0.28957    0.28247    0.25773    1.000
    S16      S        0.35650    0.60530    0.19590    1.000
    S17      S        0.24500    0.94310    0.28730    1.000
    S18      S        0.37690    0.57820    0.17240    1.000
    S19      S        0.19040    0.96100    0.24940    1.000
    S20      S        0.18110    0.97050    0.28610    1.000
    N31      N        0.43170    0.28290    0.31870    1.000
    N32      N        0.72940    0.26020    0.50260    1.000
    N33      N        0.82610    0.27410    0.53790    1.000
    N34      N        0.14650    0.21530    0.69600    1.000
    N35      N        0.23090    0.34240    0.33450    1.000
    N36      N        0.01770    0.47400    0.47730    1.000
    N37      N        0.34740    0.22430    0.18090    1.000
    N38      N        0.49010    0.01500    0.02990    1.000
    N39      N        0.31290    0.41790    0.22740    1.000
    N40      N        0.26370    0.14620    0.28640    1.000
    C79      C        0.50680    0.32900    0.30310    1.000
    H61      H        0.49670    0.35920    0.26230    1.000
    C80      C        0.59890    0.33500    0.34350    1.000
    H62      H        0.65000    0.36860    0.33030    1.000
    C81      C        0.61530    0.29130    0.40340    1.000
    C82      C        0.53800    0.24180    0.42060    1.000
    H63      H        0.54660    0.21090    0.46100    1.000
    C83      C        0.44860    0.23880    0.37720    1.000
    H64      H        0.39650    0.20440    0.38870    1.000
    C84      C        0.71350    0.29730    0.44730    1.000
    H65      H        0.76500    0.32940    0.43350    1.000
    C85      C        0.85760    0.20810    0.57500    1.000
    H66      H        0.81680    0.15480    0.57760    1.000
    C86      C        0.10880    0.29160    0.65990    1.000
    H67      H        0.14750    0.34770    0.66250    1.000
    C87      C        0.01800    0.29210    0.61990    1.000
    H68      H        0.99540    0.34720    0.59520    1.000
    C88      C        0.95810    0.21050    0.61560    1.000
    C89      C        0.99640    0.13340    0.65360    1.000
    H69      H        0.95830    0.07730    0.65300    1.000
    C90      C        0.08960    0.13720    0.69220    1.000
    H70      H        0.11420    0.08270    0.71700    1.000
    C91      C        0.15480    0.30570    0.35150    1.000
    H71      H        0.12890    0.24680    0.33340    1.000
    C92      C        0.10830    0.35410    0.39850    1.000
    H72      H        0.05220    0.32840    0.41070    1.000
    C93      C        0.14950    0.43700    0.42340    1.000
    C94      C        0.22900    0.47440    0.40840    1.000
    H73      H        0.25880    0.53070    0.42830    1.000
    C95      C        0.26560    0.42600    0.36200    1.000
    H74      H        0.31960    0.45390    0.34840    1.000
    C96      C        0.10310    0.48980    0.47240    1.000
    H75      H        0.14070    0.53580    0.49980    1.000
    C97      C        0.32270    0.26070    0.12150    1.000
    H76      H        0.28370    0.31660    0.11450    1.000
    C98      C        0.35270    0.21890    0.06930    1.000
    H77      H        0.33340    0.24580    0.02760    1.000
    C99      C        0.41080    0.13760    0.07900    1.000
    C100     C        0.43830    0.10100    0.14150    1.000
    H78      H        0.47890    0.04620    0.15010    1.000
    C101     C        0.40530    0.14600    0.19000    1.000
    H79      H        0.42410    0.12080    0.23220    1.000
    C102     C        0.44130    0.09170    0.02350    1.000
    H80      H        0.42380    0.12070    0.98230    1.000
    C103     C        0.33340    0.48920    0.21030    1.000
    C104     C        0.24490    0.06600    0.28460    1.000
