# CIF file generated by openbabel 3.1.0, see https://openbabel.org
data_I
_chemical_name_common 'image0'
_cell_length_a 9.594
_cell_length_b 22.789
_cell_length_c 10.146
_cell_angle_alpha 90
_cell_angle_beta 101.32
_cell_angle_gamma 90
_space_group_name_H-M_alt 'P 1'
_space_group_name_Hall 'P 1'
loop_
    _symmetry_equiv_pos_as_xyz
    x,y,z
loop_
    _atom_site_label
    _atom_site_type_symbol
    _atom_site_fract_x
    _atom_site_fract_y
    _atom_site_fract_z
    _atom_site_occupancy
    Nd1      Nd       0.25464    0.27797    0.03910    1.000
    Nd2      Nd       0.71997    0.43537    0.85184    1.000
    N1       N        0.59760    0.41577    0.61560    1.000
    N2       N        0.53390    0.41565    0.39530    1.000
    H1       H        0.51980    0.42750    0.31340    1.000
    N3       N        0.77200    0.50723    0.63840    1.000
    O1       O        0.06800    0.34014    0.10130    1.000
    O2       O        0.03830    0.29070    0.85670    1.000
    O3       O        0.83700    0.34288    0.78710    1.000
    O4       O        0.84950    0.37893    0.04370    1.000
    O5       O        0.52230    0.36028    0.81170    1.000
    O6       O        0.37880    0.29698    0.68330    1.000
    O7       O        0.28220    0.29621    0.38150    1.000
    O8       O        0.37400    0.34038    0.22160    1.000
    O9       O        0.59800    0.43609    0.04510    1.000
    O10      O        0.47090    0.48992    0.16420    1.000
    O11      O        0.98010    0.45067    0.86580    1.000
    O12      O        0.17820    0.48015    0.00660    1.000
    C1       C        0.45710    0.37123    0.44200    1.000
    C2       C        0.49830    0.37218    0.58030    1.000
    C3       C        0.61750    0.44125    0.50370    1.000
    C4       C        0.71950    0.48964    0.50980    1.000
    C5       C        0.76070    0.51467    0.39810    1.000
    H2       H        0.72410    0.50050    0.31010    1.000
    C6       C        0.85750    0.56132    0.41920    1.000
    H3       H        0.88810    0.57950    0.34550    1.000
    C7       C        0.90770    0.58043    0.54900    1.000
    H4       H        0.97180    0.61260    0.56530    1.000
    C8       C        0.86410    0.55237    0.65580    1.000
    H5       H        0.90080    0.56560    0.74460    1.000
    C9       C        0.36320    0.33302    0.34180    1.000
    C10      C        0.46170    0.33953    0.69630    1.000
    C11      C        0.52020    0.47836    0.06050    1.000
    C12      C        0.04520    0.47999    0.96170    1.000
    C13      C        0.95420    0.34982    0.02040    1.000
    C14      C        0.94100    0.32542    0.87500    1.000
    Nd3      Nd       0.74536    0.77797    0.46090    1.000
    Nd4      Nd       0.28003    0.93537    0.64816    1.000
    N4       N        0.40240    0.91577    0.88440    1.000
    N5       N        0.46610    0.91565    0.10470    1.000
    H6       H        0.48020    0.92750    0.18660    1.000
    N6       N        0.22800    0.00723    0.86160    1.000
    O13      O        0.93200    0.84014    0.39870    1.000
    O14      O        0.96170    0.79070    0.64330    1.000
    O15      O        0.16300    0.84288    0.71290    1.000
    O16      O        0.15050    0.87893    0.45630    1.000
    O17      O        0.47770    0.86028    0.68830    1.000
    O18      O        0.62120    0.79698    0.81670    1.000
    O19      O        0.71780    0.79621    0.11850    1.000
    O20      O        0.62600    0.84038    0.27840    1.000
    O21      O        0.40200    0.93609    0.45490    1.000
    O22      O        0.52910    0.98992    0.33580    1.000
    O23      O        0.01990    0.95067    0.63420    1.000
    O24      O        0.82180    0.98015    0.49340    1.000
    C15      C        0.54290    0.87123    0.05800    1.000
    C16      C        0.50170    0.87218    0.91970    1.000
    C17      C        0.38250    0.94125    0.99630    1.000
    C18      C        0.28050    0.98964    0.99020    1.000
    C19      C        0.23930    0.01467    0.10190    1.000
    H7       H        0.27590    0.00050    0.18990    1.000
    C20      C        0.14250    0.06132    0.08080    1.000
    H8       H        0.11190    0.07950    0.15450    1.000
    C21      C        0.09230    0.08043    0.95100    1.000
    H9       H        0.02820    0.11260    0.93470    1.000
    C22      C        0.13590    0.05237    0.84420    1.000
    H10      H        0.09920    0.06560    0.75540    1.000
    C23      C        0.63680    0.83302    0.15820    1.000
    C24      C        0.53830    0.83953    0.80370    1.000
    C25      C        0.47980    0.97836    0.43950    1.000
    C26      C        0.95480    0.97999    0.53830    1.000
    C27      C        0.04580    0.84982    0.47960    1.000
    C28      C        0.05900    0.82542    0.62500    1.000
    Nd5      Nd       0.74536    0.72203    0.96090    1.000
    Nd6      Nd       0.28003    0.56463    0.14816    1.000
    N7       N        0.40240    0.58423    0.38440    1.000
    N8       N        0.46610    0.58435    0.60470    1.000
    H11      H        0.48020    0.57250    0.68660    1.000
    N9       N        0.22800    0.49277    0.36160    1.000
    O25      O        0.93200    0.65986    0.89870    1.000
    O26      O        0.96170    0.70930    0.14330    1.000
    O27      O        0.16300    0.65712    0.21290    1.000
    O28      O        0.15050    0.62107    0.95630    1.000
    O29      O        0.47770    0.63972    0.18830    1.000
    O30      O        0.62120    0.70302    0.31670    1.000
    O31      O        0.71780    0.70379    0.61850    1.000
    O32      O        0.62600    0.65962    0.77840    1.000
    O33      O        0.40200    0.56391    0.95490    1.000
    O34      O        0.52910    0.51008    0.83580    1.000
    O35      O        0.01990    0.54933    0.13420    1.000
    O36      O        0.82180    0.51985    0.99340    1.000
    C29      C        0.54290    0.62877    0.55800    1.000
    C30      C        0.50170    0.62782    0.41970    1.000
    C31      C        0.38250    0.55875    0.49630    1.000
    C32      C        0.28050    0.51036    0.49020    1.000
    C33      C        0.23930    0.48533    0.60190    1.000
    H12      H        0.27590    0.49950    0.68990    1.000
    C34      C        0.14250    0.43868    0.58080    1.000
    H13      H        0.11190    0.42050    0.65450    1.000
    C35      C        0.09230    0.41957    0.45100    1.000
    H14      H        0.02820    0.38740    0.43470    1.000
    C36      C        0.13590    0.44763    0.34420    1.000
    H15      H        0.09920    0.43440    0.25540    1.000
    C37      C        0.63680    0.66698    0.65820    1.000
    C38      C        0.53830    0.66047    0.30370    1.000
    C39      C        0.47980    0.52164    0.93950    1.000
    C40      C        0.95480    0.52001    0.03830    1.000
    C41      C        0.04580    0.65018    0.97960    1.000
    C42      C        0.05900    0.67458    0.12500    1.000
    Nd7      Nd       0.25464    0.22203    0.53910    1.000
    Nd8      Nd       0.71997    0.06463    0.35184    1.000
    N10      N        0.59760    0.08423    0.11560    1.000
    N11      N        0.53390    0.08435    0.89530    1.000
    H16      H        0.51980    0.07250    0.81340    1.000
    N12      N        0.77200    0.99277    0.13840    1.000
    O37      O        0.06800    0.15986    0.60130    1.000
    O38      O        0.03830    0.20930    0.35670    1.000
    O39      O        0.83700    0.15712    0.28710    1.000
    O40      O        0.84950    0.12107    0.54370    1.000
    O41      O        0.52230    0.13972    0.31170    1.000
    O42      O        0.37880    0.20302    0.18330    1.000
    O43      O        0.28220    0.20379    0.88150    1.000
    O44      O        0.37400    0.15962    0.72160    1.000
    O45      O        0.59800    0.06391    0.54510    1.000
    O46      O        0.47090    0.01008    0.66420    1.000
    O47      O        0.98010    0.04933    0.36580    1.000
    O48      O        0.17820    0.01985    0.50660    1.000
    C43      C        0.45710    0.12877    0.94200    1.000
    C44      C        0.49830    0.12782    0.08030    1.000
    C45      C        0.61750    0.05875    0.00370    1.000
    C46      C        0.71950    0.01036    0.00980    1.000
    C47      C        0.76070    0.98533    0.89810    1.000
    H17      H        0.72410    0.99950    0.81010    1.000
    C48      C        0.85750    0.93868    0.91920    1.000
    H18      H        0.88810    0.92050    0.84550    1.000
    C49      C        0.90770    0.91957    0.04900    1.000
    H19      H        0.97180    0.88740    0.06530    1.000
    C50      C        0.86410    0.94763    0.15580    1.000
    H20      H        0.90080    0.93440    0.24460    1.000
    C51      C        0.36320    0.16698    0.84180    1.000
    C52      C        0.46170    0.16047    0.19630    1.000
    C53      C        0.52020    0.02164    0.56050    1.000
    C54      C        0.04520    0.02001    0.46170    1.000
    C55      C        0.95420    0.15018    0.52040    1.000
    C56      C        0.94100    0.17458    0.37500    1.000
