# CIF file generated by openbabel 3.1.0, see https://openbabel.org
data_I
_chemical_name_common 'image0'
_cell_length_a 9.6416
_cell_length_b 10.973
_cell_length_c 15.997
_cell_angle_alpha 109.52
_cell_angle_beta 91.56
_cell_angle_gamma 109.61
_space_group_name_H-M_alt 'P 1'
_space_group_name_Hall 'P 1'
loop_
    _symmetry_equiv_pos_as_xyz
    x,y,z
loop_
    _atom_site_label
    _atom_site_type_symbol
    _atom_site_fract_x
    _atom_site_fract_y
    _atom_site_fract_z
    _atom_site_occupancy
    U1       U        0.10097    0.29971    0.37978    1.000
    U2       U        0.85495    0.82900    0.99680    1.000
    O1       O        0.14500    0.09110    0.28580    1.000
    O2       O        0.03790    0.08000    0.40300    1.000
    C1       C        0.08860    0.02420    0.33300    1.000
    C2       C        0.08450    0.87980    0.31240    1.000
    C3       C        0.09380    0.80220    0.22640    1.000
    H1       H        0.10330    0.84200    0.18290    1.000
    C4       C        0.08970    0.66770    0.20220    1.000
    C5       C        0.07420    0.60680    0.26740    1.000
    H2       H        0.06500    0.51470    0.25240    1.000
    C6       C        0.07280    0.68790    0.35540    1.000
    C7       C        0.07350    0.82110    0.37930    1.000
    H3       H        0.06680    0.87080    0.43790    1.000
    C8       C        0.07100    0.62680    0.43040    1.000
    O3       O        0.03230    0.68370    0.49970    1.000
    O4       O        0.10370    0.52270    0.41360    1.000
    N1       N        0.08900    0.58840    0.11420    1.000
    H4       H        0.09120    0.62270    0.07290    1.000
    H5       H        0.08640    0.50490    0.10070    1.000
    O5       O        0.67680    0.65580    0.04730    1.000
    O6       O        0.80170    0.85790    0.14910    1.000
    C9       C        0.70760    0.73750    0.12830    1.000
    C10      C        0.62650    0.69720    0.19810    1.000
    C11      C        0.68460    0.77620    0.28490    1.000
    H6       H        0.76970    0.85590    0.29910    1.000
    C12      C        0.61600    0.73800    0.35480    1.000
    C13      C        0.48740    0.62020    0.33080    1.000
    H7       H        0.43920    0.59440    0.37520    1.000
    C14      C        0.42980    0.53980    0.24040    1.000
    C15      C        0.50000    0.57860    0.17440    1.000
    H8       H        0.46220    0.52520    0.11420    1.000
    C16      C        0.29010    0.41130    0.21600    1.000
    O7       O        0.22450    0.36050    0.13890    1.000
    O8       O        0.24370    0.36790    0.27700    1.000
    N2       N        0.67840    0.81680    0.44280    1.000
    H9       H        0.63780    0.79360    0.48510    1.000
    H10      H        0.75830    0.88940    0.45560    1.000
    O9       O        0.00230    0.94390    0.91360    1.000
    H11      H        0.04710    0.91050    0.87810    1.000
    H12      H        0.95020    0.94360    0.87370    1.000
    U3       U        0.89903    0.70029    0.62022    1.000
    U4       U        0.14505    0.17100    0.00320    1.000
    O10      O        0.85500    0.90890    0.71420    1.000
    O11      O        0.96210    0.92000    0.59700    1.000
    C17      C        0.91140    0.97580    0.66700    1.000
    C18      C        0.91550    0.12020    0.68760    1.000
    C19      C        0.90620    0.19780    0.77360    1.000
    H13      H        0.89670    0.15800    0.81710    1.000
    C20      C        0.91030    0.33230    0.79780    1.000
    C21      C        0.92580    0.39320    0.73260    1.000
    H14      H        0.93500    0.48530    0.74760    1.000
    C22      C        0.92720    0.31210    0.64460    1.000
    C23      C        0.92650    0.17890    0.62070    1.000
    H15      H        0.93320    0.12920    0.56210    1.000
    C24      C        0.92900    0.37320    0.56960    1.000
    O12      O        0.96770    0.31630    0.50030    1.000
    O13      O        0.89630    0.47730    0.58640    1.000
    N3       N        0.91100    0.41160    0.88580    1.000
    H16      H        0.90880    0.37730    0.92710    1.000
    H17      H        0.91360    0.49510    0.89930    1.000
    O14      O        0.32320    0.34420    0.95270    1.000
    O15      O        0.19830    0.14210    0.85090    1.000
    C25      C        0.29240    0.26250    0.87170    1.000
    C26      C        0.37350    0.30280    0.80190    1.000
    C27      C        0.31540    0.22380    0.71510    1.000
    H18      H        0.23030    0.14410    0.70090    1.000
    C28      C        0.38400    0.26200    0.64520    1.000
    C29      C        0.51260    0.37980    0.66920    1.000
    H19      H        0.56080    0.40560    0.62480    1.000
    C30      C        0.57020    0.46020    0.75960    1.000
    C31      C        0.50000    0.42140    0.82560    1.000
    H20      H        0.53780    0.47480    0.88580    1.000
    C32      C        0.70990    0.58870    0.78400    1.000
    O16      O        0.77550    0.63950    0.86110    1.000
    O17      O        0.75630    0.63210    0.72300    1.000
    N4       N        0.32160    0.18320    0.55720    1.000
    H21      H        0.36220    0.20640    0.51490    1.000
    H22      H        0.24170    0.11060    0.54440    1.000
    O18      O        0.99770    0.05610    0.08640    1.000
    H23      H        0.95290    0.08950    0.12190    1.000
    H24      H        0.04980    0.05640    0.12630    1.000
