# CIF file generated by openbabel 3.1.0, see https://openbabel.org
data_I
_chemical_name_common 'JUCXEK_clean'
_cell_length_a 11.382
_cell_length_b 11.382
_cell_length_c 11.734
_cell_angle_alpha 90
_cell_angle_beta 90
_cell_angle_gamma 120
_space_group_name_H-M_alt 'P 1'
_space_group_name_Hall 'P 1'
loop_
    _symmetry_equiv_pos_as_xyz
    x,y,z
loop_
    _atom_site_label
    _atom_site_type_symbol
    _atom_site_fract_x
    _atom_site_fract_y
    _atom_site_fract_z
    _atom_site_occupancy
    Np1      Np       0.50744    0.89648    0.75000    1.000
    Np2      Np       0.38904    0.49256    0.75000    1.000
    Np3      Np       0.10352    0.61096    0.75000    1.000
    Np4      Np       0.49256    0.10352    0.25000    1.000
    Np5      Np       0.61096    0.50744    0.25000    1.000
    Np6      Np       0.89648    0.38904    0.25000    1.000
    C1       C        0.49930    0.93690    0.47560    1.000
    C2       C        0.43760    0.50070    0.47560    1.000
    C3       C        0.06310    0.56240    0.47560    1.000
    C4       C        0.50070    0.06310    0.97560    1.000
    C5       C        0.56240    0.49930    0.97560    1.000
    C6       C        0.93690    0.43760    0.97560    1.000
    C7       C        0.50070    0.06310    0.52440    1.000
    C8       C        0.56240    0.49930    0.52440    1.000
    C9       C        0.93690    0.43760    0.52440    1.000
    C10      C        0.49930    0.93690    0.02440    1.000
    C11      C        0.43760    0.50070    0.02440    1.000
    C12      C        0.06310    0.56240    0.02440    1.000
    O1       O        0.50430    0.85600    0.54420    1.000
    O2       O        0.51010    0.07600    0.63160    1.000
    O3       O        0.35170    0.49570    0.54420    1.000
    O4       O        0.56590    0.48990    0.63160    1.000
    O5       O        0.14400    0.64830    0.54420    1.000
    O6       O        0.92400    0.43410    0.63160    1.000
    O7       O        0.49570    0.14400    0.04420    1.000
    O8       O        0.48990    0.92400    0.13160    1.000
    O9       O        0.64830    0.50430    0.04420    1.000
    O10      O        0.43410    0.51010    0.13160    1.000
    O11      O        0.85600    0.35170    0.04420    1.000
    O12      O        0.07600    0.56590    0.13160    1.000
    O13      O        0.49570    0.14400    0.45580    1.000
    O14      O        0.48990    0.92400    0.36840    1.000
    O15      O        0.64830    0.50430    0.45580    1.000
    O16      O        0.43410    0.51010    0.36840    1.000
    O17      O        0.85600    0.35170    0.45580    1.000
    O18      O        0.07600    0.56590    0.36840    1.000
    O19      O        0.50430    0.85600    0.95580    1.000
    O20      O        0.51010    0.07600    0.86840    1.000
    O21      O        0.35170    0.49570    0.95580    1.000
    O22      O        0.56590    0.48990    0.86840    1.000
    O23      O        0.14400    0.64830    0.95580    1.000
    O24      O        0.92400    0.43410    0.86840    1.000
    O25      O        0.31660    0.81290    0.75000    1.000
    O26      O        0.49630    0.68340    0.75000    1.000
    O27      O        0.18710    0.50370    0.75000    1.000
    O28      O        0.68340    0.18710    0.25000    1.000
    O29      O        0.50370    0.31660    0.25000    1.000
    O30      O        0.81290    0.49630    0.25000    1.000
