# CIF file generated by openbabel 3.1.0, see https://openbabel.org
data_I
_chemical_name_common 'image0'
_cell_length_a 17.7835
_cell_length_b 12.7818
_cell_length_c 11.2254
_cell_angle_alpha 90
_cell_angle_beta 95.18
_cell_angle_gamma 90
_space_group_name_H-M_alt 'P 1'
_space_group_name_Hall 'P 1'
loop_
    _symmetry_equiv_pos_as_xyz
    x,y,z
loop_
    _atom_site_label
    _atom_site_type_symbol
    _atom_site_fract_x
    _atom_site_fract_y
    _atom_site_fract_z
    _atom_site_occupancy
    Co1      Co       0.42086    0.55816    0.49986    1.000
    N1       N        0.87320    0.93500    0.16170    1.000
    N2       N        0.91050    0.98310    0.25560    1.000
    N3       N        0.87680    0.97010    0.35480    1.000
    C1       C        0.81200    0.88700    0.20460    1.000
    C2       C        0.81470    0.90990    0.32740    1.000
    C3       C        0.76030    0.87260    0.39840    1.000
    H1       H        0.76280    0.88730    0.47980    1.000
    C4       C        0.70350    0.81380    0.34390    1.000
    H2       H        0.66630    0.78830    0.38930    1.000
    C5       C        0.69910    0.79020    0.21950    1.000
    C6       C        0.75310    0.82680    0.14830    1.000
    H3       H        0.75040    0.81220    0.06690    1.000
    C7       C        0.63390    0.72370    0.16870    1.000
    O1       O        0.52011    0.57990    0.43220    1.000
    H4       H        0.54600    0.63900    0.46500    1.000
    O2       O        0.63691    0.68760    0.06390    1.000
    O3       O        0.58158    0.70970    0.23460    1.000
    Co2      Co       0.92086    0.05816    0.49986    1.000
    N4       N        0.37320    0.43500    0.16170    1.000
    N5       N        0.41050    0.48310    0.25560    1.000
    N6       N        0.37680    0.47010    0.35480    1.000
    C8       C        0.31200    0.38700    0.20460    1.000
    C9       C        0.31470    0.40990    0.32740    1.000
    C10      C        0.26030    0.37260    0.39840    1.000
    H5       H        0.26280    0.38730    0.47980    1.000
    C11      C        0.20350    0.31380    0.34390    1.000
    H6       H        0.16630    0.28830    0.38930    1.000
    C12      C        0.19910    0.29020    0.21950    1.000
    C13      C        0.25310    0.32680    0.14830    1.000
    H7       H        0.25040    0.31220    0.06690    1.000
    C14      C        0.13390    0.22370    0.16870    1.000
    O4       O        0.02011    0.07990    0.43220    1.000
    H8       H        0.04600    0.13900    0.46500    1.000
    O5       O        0.13691    0.18760    0.06390    1.000
    O6       O        0.08158    0.20970    0.23460    1.000
    Co3      Co       0.57914    0.55816    0.00014    1.000
    N7       N        0.12680    0.93500    0.33830    1.000
    N8       N        0.08950    0.98310    0.24440    1.000
    N9       N        0.12320    0.97010    0.14520    1.000
    C15      C        0.18800    0.88700    0.29540    1.000
    C16      C        0.18530    0.90990    0.17260    1.000
    C17      C        0.23970    0.87260    0.10160    1.000
    H9       H        0.23720    0.88730    0.02020    1.000
    C18      C        0.29650    0.81380    0.15610    1.000
    H10      H        0.33370    0.78830    0.11070    1.000
    C19      C        0.30090    0.79020    0.28050    1.000
    C20      C        0.24690    0.82680    0.35170    1.000
    H11      H        0.24960    0.81220    0.43310    1.000
    C21      C        0.36610    0.72370    0.33130    1.000
    O7       O        0.47989    0.57990    0.06780    1.000
    H12      H        0.45400    0.63900    0.03500    1.000
    O8       O        0.36309    0.68760    0.43610    1.000
    O9       O        0.41842    0.70970    0.26540    1.000
    Co4      Co       0.07914    0.05816    0.00014    1.000
    N10      N        0.62680    0.43500    0.33830    1.000
    N11      N        0.58950    0.48310    0.24440    1.000
    N12      N        0.62320    0.47010    0.14520    1.000
    C22      C        0.68800    0.38700    0.29540    1.000
    C23      C        0.68530    0.40990    0.17260    1.000
    C24      C        0.73970    0.37260    0.10160    1.000
    H13      H        0.73720    0.38730    0.02020    1.000
    C25      C        0.79650    0.31380    0.15610    1.000
    H14      H        0.83370    0.28830    0.11070    1.000
    C26      C        0.80090    0.29020    0.28050    1.000
    C27      C        0.74690    0.32680    0.35170    1.000
    H15      H        0.74960    0.31220    0.43310    1.000
    C28      C        0.86610    0.22370    0.33130    1.000
    O10      O        0.97989    0.07990    0.06780    1.000
    H16      H        0.95400    0.13900    0.03500    1.000
    O11      O        0.86309    0.18760    0.43610    1.000
    O12      O        0.91842    0.20970    0.26540    1.000
    Co5      Co       0.57914    0.44184    0.50014    1.000
    N13      N        0.12680    0.06500    0.83830    1.000
    N14      N        0.08950    0.01690    0.74440    1.000
    N15      N        0.12320    0.02990    0.64520    1.000
    C29      C        0.18800    0.11300    0.79540    1.000
    C30      C        0.18530    0.09010    0.67260    1.000
    C31      C        0.23970    0.12740    0.60160    1.000
    H17      H        0.23720    0.11270    0.52020    1.000
    C32      C        0.29650    0.18620    0.65610    1.000
    H18      H        0.33370    0.21170    0.61070    1.000
    C33      C        0.30090    0.20980    0.78050    1.000
    C34      C        0.24690    0.17320    0.85170    1.000
    H19      H        0.24960    0.18780    0.93310    1.000
    C35      C        0.36610    0.27630    0.83130    1.000
    O13      O        0.47989    0.42010    0.56780    1.000
    H20      H        0.45400    0.36100    0.53500    1.000
    O14      O        0.36309    0.31240    0.93610    1.000
    O15      O        0.41842    0.29030    0.76540    1.000
    Co6      Co       0.07914    0.94184    0.50014    1.000
    N16      N        0.62680    0.56500    0.83830    1.000
    N17      N        0.58950    0.51690    0.74440    1.000
    N18      N        0.62320    0.52990    0.64520    1.000
    C36      C        0.68800    0.61300    0.79540    1.000
    C37      C        0.68530    0.59010    0.67260    1.000
    C38      C        0.73970    0.62740    0.60160    1.000
    H21      H        0.73720    0.61270    0.52020    1.000
    C39      C        0.79650    0.68620    0.65610    1.000
    H22      H        0.83370    0.71170    0.61070    1.000
    C40      C        0.80090    0.70980    0.78050    1.000
    C41      C        0.74690    0.67320    0.85170    1.000
    H23      H        0.74960    0.68780    0.93310    1.000
    C42      C        0.86610    0.77630    0.83130    1.000
    O16      O        0.97989    0.92010    0.56780    1.000
    H24      H        0.95400    0.86100    0.53500    1.000
    O17      O        0.86309    0.81240    0.93610    1.000
    O18      O        0.91842    0.79030    0.76540    1.000
    Co7      Co       0.42086    0.44184    0.99986    1.000
    N19      N        0.87320    0.06500    0.66170    1.000
    N20      N        0.91050    0.01690    0.75560    1.000
    N21      N        0.87680    0.02990    0.85480    1.000
    C43      C        0.81200    0.11300    0.70460    1.000
    C44      C        0.81470    0.09010    0.82740    1.000
    C45      C        0.76030    0.12740    0.89840    1.000
    H25      H        0.76280    0.11270    0.97980    1.000
    C46      C        0.70350    0.18620    0.84390    1.000
    H26      H        0.66630    0.21170    0.88930    1.000
    C47      C        0.69910    0.20980    0.71950    1.000
    C48      C        0.75310    0.17320    0.64830    1.000
    H27      H        0.75040    0.18780    0.56690    1.000
    C49      C        0.63390    0.27630    0.66870    1.000
    O19      O        0.52011    0.42010    0.93220    1.000
    H28      H        0.54600    0.36100    0.96500    1.000
    O20      O        0.63691    0.31240    0.56390    1.000
    O21      O        0.58158    0.29030    0.73460    1.000
    Co8      Co       0.92086    0.94184    0.99986    1.000
    N22      N        0.37320    0.56500    0.66170    1.000
    N23      N        0.41050    0.51690    0.75560    1.000
    N24      N        0.37680    0.52990    0.85480    1.000
    C50      C        0.31200    0.61300    0.70460    1.000
    C51      C        0.31470    0.59010    0.82740    1.000
    C52      C        0.26030    0.62740    0.89840    1.000
    H29      H        0.26280    0.61270    0.97980    1.000
    C53      C        0.20350    0.68620    0.84390    1.000
    H30      H        0.16630    0.71170    0.88930    1.000
    C54      C        0.19910    0.70980    0.71950    1.000
    C55      C        0.25310    0.67320    0.64830    1.000
    H31      H        0.25040    0.68780    0.56690    1.000
    C56      C        0.13390    0.77630    0.66870    1.000
    O22      O        0.02011    0.92010    0.93220    1.000
    H32      H        0.04600    0.86100    0.96500    1.000
    O23      O        0.13691    0.81240    0.56390    1.000
    O24      O        0.08158    0.79030    0.73460    1.000
    Co9      Co       0.50000    0.59464    0.25000    1.000
    Co10     Co       0.00000    0.09464    0.25000    1.000
    Co11     Co       0.50000    0.40536    0.75000    1.000
    Co12     Co       0.00000    0.90536    0.75000    1.000
