# CIF file generated by openbabel 3.1.0, see https://openbabel.org
data_I
_chemical_name_common 'image0'
_cell_length_a 17.749
_cell_length_b 7.2777
_cell_length_c 12.907
_cell_angle_alpha 90
_cell_angle_beta 90
_cell_angle_gamma 90
_space_group_name_H-M_alt 'P 1'
_space_group_name_Hall 'P 1'
loop_
    _symmetry_equiv_pos_as_xyz
    x,y,z
loop_
    _atom_site_label
    _atom_site_type_symbol
    _atom_site_fract_x
    _atom_site_fract_y
    _atom_site_fract_z
    _atom_site_occupancy
    O1       O        0.41280    0.59560    0.39760    1.000
    C1       C        0.27320    0.59520    0.29580    1.000
    H1       H        0.28830    0.48050    0.32400    1.000
    N1       N        0.29600    0.42300    0.33800    1.000
    O2       O        0.27260    0.37500    0.42500    1.000
    O3       O        0.33860    0.32200    0.28800    1.000
    C2       C        0.29040    0.58340    0.26610    1.000
    H2       H        0.30760    0.46580    0.28770    1.000
    N2       N        0.31700    0.40700    0.29800    1.000
    O4       O        0.29710    0.33800    0.38060    1.000
    O5       O        0.36110    0.32600    0.23900    1.000
    O6       O        0.91280    0.09560    0.89760    1.000
    C3       C        0.77320    0.09520    0.79580    1.000
    H3       H        0.78830    0.98050    0.82400    1.000
    N3       N        0.79600    0.92300    0.83800    1.000
    O7       O        0.77260    0.87500    0.92500    1.000
    O8       O        0.83860    0.82200    0.78800    1.000
    C4       C        0.79040    0.08340    0.76610    1.000
    H4       H        0.80760    0.96580    0.78770    1.000
    N4       N        0.81700    0.90700    0.79800    1.000
    O9       O        0.79710    0.83800    0.88060    1.000
    O10      O        0.86110    0.82600    0.73900    1.000
    O11      O        0.58720    0.90440    0.39760    1.000
    C5       C        0.72680    0.90480    0.29580    1.000
    H5       H        0.71170    0.01950    0.32400    1.000
    N5       N        0.70400    0.07700    0.33800    1.000
    O12      O        0.72740    0.12500    0.42500    1.000
    O13      O        0.66140    0.17800    0.28800    1.000
    C6       C        0.70960    0.91660    0.26610    1.000
    H6       H        0.69240    0.03420    0.28770    1.000
    N6       N        0.68300    0.09300    0.29800    1.000
    O14      O        0.70290    0.16200    0.38060    1.000
    O15      O        0.63890    0.17400    0.23900    1.000
    O16      O        0.08720    0.40440    0.89760    1.000
    C7       C        0.22680    0.40480    0.79580    1.000
    H7       H        0.21170    0.51950    0.82400    1.000
    N7       N        0.20400    0.57700    0.83800    1.000
    O17      O        0.22740    0.62500    0.92500    1.000
    O18      O        0.16140    0.67800    0.78800    1.000
    C8       C        0.20960    0.41660    0.76610    1.000
    H8       H        0.19240    0.53420    0.78770    1.000
    N8       N        0.18300    0.59300    0.79800    1.000
    O19      O        0.20290    0.66200    0.88060    1.000
    O20      O        0.13890    0.67400    0.73900    1.000
    O21      O        0.58720    0.09560    0.60240    1.000
    C9       C        0.72680    0.09520    0.70420    1.000
    H9       H        0.71170    0.98050    0.67600    1.000
    N9       N        0.70400    0.92300    0.66200    1.000
    O22      O        0.72740    0.87500    0.57500    1.000
    O23      O        0.66140    0.82200    0.71200    1.000
    C10      C        0.70960    0.08340    0.73390    1.000
    H10      H        0.69240    0.96580    0.71230    1.000
    N10      N        0.68300    0.90700    0.70200    1.000
    O24      O        0.70290    0.83800    0.61940    1.000
    O25      O        0.63890    0.82600    0.76100    1.000
    O26      O        0.08720    0.59560    0.10240    1.000
    C11      C        0.22680    0.59520    0.20420    1.000
    H11      H        0.21170    0.48050    0.17600    1.000
    N11      N        0.20400    0.42300    0.16200    1.000
    O27      O        0.22740    0.37500    0.07500    1.000
    O28      O        0.16140    0.32200    0.21200    1.000
    C12      C        0.20960    0.58340    0.23390    1.000
    H12      H        0.19240    0.46580    0.21230    1.000
    N12      N        0.18300    0.40700    0.20200    1.000
    O29      O        0.20290    0.33800    0.11940    1.000
    O30      O        0.13890    0.32600    0.26100    1.000
    O31      O        0.41280    0.40440    0.60240    1.000
    C13      C        0.27320    0.40480    0.70420    1.000
    H13      H        0.28830    0.51950    0.67600    1.000
    N13      N        0.29600    0.57700    0.66200    1.000
    O32      O        0.27260    0.62500    0.57500    1.000
    O33      O        0.33860    0.67800    0.71200    1.000
    C14      C        0.29040    0.41660    0.73390    1.000
    H14      H        0.30760    0.53420    0.71230    1.000
    N14      N        0.31700    0.59300    0.70200    1.000
    O34      O        0.29710    0.66200    0.61940    1.000
    O35      O        0.36110    0.67400    0.76100    1.000
    O36      O        0.91280    0.90440    0.10240    1.000
    C15      C        0.77320    0.90480    0.20420    1.000
    H15      H        0.78830    0.01950    0.17600    1.000
    N15      N        0.79600    0.07700    0.16200    1.000
    O37      O        0.77260    0.12500    0.07500    1.000
    O38      O        0.83860    0.17800    0.21200    1.000
    C16      C        0.79040    0.91660    0.23390    1.000
    H16      H        0.80760    0.03420    0.21230    1.000
    N16      N        0.81700    0.09300    0.20200    1.000
    O39      O        0.79710    0.16200    0.11940    1.000
    O40      O        0.86110    0.17400    0.26100    1.000
    O41      O        0.58720    0.40440    0.60240    1.000
    C17      C        0.72680    0.40480    0.70420    1.000
    H17      H        0.71170    0.51950    0.67600    1.000
    N17      N        0.70400    0.57700    0.66200    1.000
    O42      O        0.72740    0.62500    0.57500    1.000
    O43      O        0.66140    0.67800    0.71200    1.000
    C18      C        0.70960    0.41660    0.73390    1.000
    H18      H        0.69240    0.53420    0.71230    1.000
    N18      N        0.68300    0.59300    0.70200    1.000
    O44      O        0.70290    0.66200    0.61940    1.000
    O45      O        0.63890    0.67400    0.76100    1.000
    O46      O        0.08720    0.90440    0.10240    1.000
    C19      C        0.22680    0.90480    0.20420    1.000
    H19      H        0.21170    0.01950    0.17600    1.000
    N19      N        0.20400    0.07700    0.16200    1.000
    O47      O        0.22740    0.12500    0.07500    1.000
    O48      O        0.16140    0.17800    0.21200    1.000
    C20      C        0.20960    0.91660    0.23390    1.000
    H20      H        0.19240    0.03420    0.21230    1.000
    N20      N        0.18300    0.09300    0.20200    1.000
    O49      O        0.20290    0.16200    0.11940    1.000
    O50      O        0.13890    0.17400    0.26100    1.000
    O51      O        0.41280    0.09560    0.60240    1.000
    C21      C        0.27320    0.09520    0.70420    1.000
    H21      H        0.28830    0.98050    0.67600    1.000
    N21      N        0.29600    0.92300    0.66200    1.000
    O52      O        0.27260    0.87500    0.57500    1.000
    O53      O        0.33860    0.82200    0.71200    1.000
    C22      C        0.29040    0.08340    0.73390    1.000
    H22      H        0.30760    0.96580    0.71230    1.000
    N22      N        0.31700    0.90700    0.70200    1.000
    O54      O        0.29710    0.83800    0.61940    1.000
    O55      O        0.36110    0.82600    0.76100    1.000
    O56      O        0.91280    0.59560    0.10240    1.000
    C23      C        0.77320    0.59520    0.20420    1.000
    H23      H        0.78830    0.48050    0.17600    1.000
    N23      N        0.79600    0.42300    0.16200    1.000
    O57      O        0.77260    0.37500    0.07500    1.000
    O58      O        0.83860    0.32200    0.21200    1.000
    C24      C        0.79040    0.58340    0.23390    1.000
    H24      H        0.80760    0.46580    0.21230    1.000
    N24      N        0.81700    0.40700    0.20200    1.000
    O59      O        0.79710    0.33800    0.11940    1.000
    O60      O        0.86110    0.32600    0.26100    1.000
    O61      O        0.41280    0.90440    0.39760    1.000
    C25      C        0.27320    0.90480    0.29580    1.000
    H25      H        0.28830    0.01950    0.32400    1.000
    N25      N        0.29600    0.07700    0.33800    1.000
    O62      O        0.27260    0.12500    0.42500    1.000
    O63      O        0.33860    0.17800    0.28800    1.000
    C26      C        0.29040    0.91660    0.26610    1.000
    H26      H        0.30760    0.03420    0.28770    1.000
    N26      N        0.31700    0.09300    0.29800    1.000
    O64      O        0.29710    0.16200    0.38060    1.000
    O65      O        0.36110    0.17400    0.23900    1.000
    O66      O        0.91280    0.40440    0.89760    1.000
    C27      C        0.77320    0.40480    0.79580    1.000
    H27      H        0.78830    0.51950    0.82400    1.000
    N27      N        0.79600    0.57700    0.83800    1.000
    O67      O        0.77260    0.62500    0.92500    1.000
    O68      O        0.83860    0.67800    0.78800    1.000
    C28      C        0.79040    0.41660    0.76610    1.000
    H28      H        0.80760    0.53420    0.78770    1.000
    N28      N        0.81700    0.59300    0.79800    1.000
    O69      O        0.79710    0.66200    0.88060    1.000
    O70      O        0.86110    0.67400    0.73900    1.000
    O71      O        0.58720    0.59560    0.39760    1.000
    C29      C        0.72680    0.59520    0.29580    1.000
    H29      H        0.71170    0.48050    0.32400    1.000
    N29      N        0.70400    0.42300    0.33800    1.000
    O72      O        0.72740    0.37500    0.42500    1.000
    O73      O        0.66140    0.32200    0.28800    1.000
    C30      C        0.70960    0.58340    0.26610    1.000
    H30      H        0.69240    0.46580    0.28770    1.000
    N30      N        0.68300    0.40700    0.29800    1.000
    O74      O        0.70290    0.33800    0.38060    1.000
    O75      O        0.63890    0.32600    0.23900    1.000
    O76      O        0.08720    0.09560    0.89760    1.000
    C31      C        0.22680    0.09520    0.79580    1.000
    H31      H        0.21170    0.98050    0.82400    1.000
    N31      N        0.20400    0.92300    0.83800    1.000
    O77      O        0.22740    0.87500    0.92500    1.000
    O78      O        0.16140    0.82200    0.78800    1.000
    C32      C        0.20960    0.08340    0.76610    1.000
    H32      H        0.19240    0.96580    0.78770    1.000
    N32      N        0.18300    0.90700    0.79800    1.000
    O79      O        0.20290    0.83800    0.88060    1.000
    O80      O        0.13890    0.82600    0.73900    1.000
    In1      In       0.50000    0.50000    0.50000    1.000
    In2      In       0.00000    0.00000    0.00000    1.000
    In3      In       0.50000    0.00000    0.50000    1.000
    In4      In       0.00000    0.50000    0.00000    1.000
    O81      O        0.50000    0.75000    0.57910    1.000
    H33      H        0.50000    0.75000    0.64380    1.000
    O82      O        0.00000    0.25000    0.07910    1.000
    H34      H        0.00000    0.25000    0.14380    1.000
    O83      O        0.50000    0.25000    0.42090    1.000
    H35      H        0.50000    0.25000    0.35620    1.000
    O84      O        0.00000    0.75000    0.92090    1.000
    H36      H        0.00000    0.75000    0.85620    1.000
    C33      C        0.38630    0.75000    0.37400    1.000
    C34      C        0.31080    0.75000    0.32080    1.000
    C35      C        0.32190    0.75000    0.29680    1.000
    C36      C        0.88630    0.25000    0.87400    1.000
    C37      C        0.81080    0.25000    0.82080    1.000
    C38      C        0.82190    0.25000    0.79680    1.000
    C39      C        0.61370    0.75000    0.37400    1.000
    C40      C        0.68920    0.75000    0.32080    1.000
    C41      C        0.67810    0.75000    0.29680    1.000
    C42      C        0.11370    0.25000    0.87400    1.000
    C43      C        0.18920    0.25000    0.82080    1.000
    C44      C        0.17810    0.25000    0.79680    1.000
    C45      C        0.61370    0.25000    0.62600    1.000
    C46      C        0.68920    0.25000    0.67920    1.000
    C47      C        0.67810    0.25000    0.70320    1.000
    C48      C        0.11370    0.75000    0.12600    1.000
    C49      C        0.18920    0.75000    0.17920    1.000
    C50      C        0.17810    0.75000    0.20320    1.000
    C51      C        0.38630    0.25000    0.62600    1.000
    C52      C        0.31080    0.25000    0.67920    1.000
    C53      C        0.32190    0.25000    0.70320    1.000
    C54      C        0.88630    0.75000    0.12600    1.000
    C55      C        0.81080    0.75000    0.17920    1.000
    C56      C        0.82190    0.75000    0.20320    1.000
