# CIF file generated by openbabel 3.1.0, see https://openbabel.org
data_I
_chemical_name_common 'image0'
_cell_length_a 14.8022
_cell_length_b 27.3307
_cell_length_c 8.3487
_cell_angle_alpha 90
_cell_angle_beta 90
_cell_angle_gamma 90
_space_group_name_H-M_alt 'P 1'
_space_group_name_Hall 'P 1'
loop_
    _symmetry_equiv_pos_as_xyz
    x,y,z
loop_
    _atom_site_label
    _atom_site_type_symbol
    _atom_site_fract_x
    _atom_site_fract_y
    _atom_site_fract_z
    _atom_site_occupancy
    P1       P        0.90205    0.78204    0.14240    1.000
    P2       P        0.09497    0.67065    0.13870    1.000
    P3       P        0.21995    0.86048    0.13770    1.000
    P4       P        0.89889    0.94715    0.14280    1.000
    Al1      Al       0.09360    0.77866    0.26820    1.000
    Al2      Al       0.90026    0.67455    0.26100    1.000
    Al3      Al       0.09319    0.94453    0.26480    1.000
    Al4      Al       0.77381    0.86478    0.26320    1.000
    O1       O        0.87950    0.73410    0.22110    1.000
    O2       O        0.99200    0.80195    0.20370    1.000
    O3       O        0.82810    0.81880    0.16700    1.000
    O4       O        0.90870    0.77217    0.96790    1.000
    O5       O        0.11190    0.72198    0.19060    1.000
    O6       O        0.16185    0.63464    0.21000    1.000
    O7       O        0.10250    0.66898    0.96170    1.000
    O8       O        0.00050    0.65426    0.18470    1.000
    O9       O        0.31861    0.86383    0.18790    1.000
    O10      O        0.17950    0.81546    0.21100    1.000
    O11      O        0.21490    0.85531    0.96080    1.000
    O12      O        0.17480    0.90633    0.19330    1.000
    O13      O        0.98700    0.92498    0.20760    1.000
    O14      O        0.88620    0.99914    0.19230    1.000
    O15      O        0.81850    0.91939    0.20860    1.000
    O16      O        0.89890    0.94528    0.96570    1.000
    P5       P        0.40205    0.28204    0.64240    1.000
    P6       P        0.59497    0.17065    0.63870    1.000
    P7       P        0.71995    0.36048    0.63770    1.000
    P8       P        0.39889    0.44715    0.64280    1.000
    Al5      Al       0.59360    0.27866    0.76820    1.000
    Al6      Al       0.40026    0.17455    0.76100    1.000
    Al7      Al       0.59319    0.44453    0.76480    1.000
    Al8      Al       0.27381    0.36478    0.76320    1.000
    O17      O        0.37950    0.23410    0.72110    1.000
    O18      O        0.49200    0.30195    0.70370    1.000
    O19      O        0.32810    0.31880    0.66700    1.000
    O20      O        0.40870    0.27217    0.46790    1.000
    O21      O        0.61190    0.22198    0.69060    1.000
    O22      O        0.66185    0.13464    0.71000    1.000
    O23      O        0.60250    0.16898    0.46170    1.000
    O24      O        0.50050    0.15426    0.68470    1.000
    O25      O        0.81861    0.36383    0.68790    1.000
    O26      O        0.67950    0.31546    0.71100    1.000
    O27      O        0.71490    0.35531    0.46080    1.000
    O28      O        0.67480    0.40633    0.69330    1.000
    O29      O        0.48700    0.42498    0.70760    1.000
    O30      O        0.38620    0.49914    0.69230    1.000
    O31      O        0.31850    0.41939    0.70860    1.000
    O32      O        0.39890    0.44528    0.46570    1.000
    P9       P        0.09795    0.21796    0.14240    1.000
    P10      P        0.90503    0.32935    0.13870    1.000
    P11      P        0.78005    0.13952    0.13770    1.000
    P12      P        0.10111    0.05285    0.14280    1.000
    Al9      Al       0.90640    0.22134    0.26820    1.000
    Al10     Al       0.09974    0.32545    0.26100    1.000
    Al11     Al       0.90681    0.05547    0.26480    1.000
    Al12     Al       0.22619    0.13522    0.26320    1.000
    O33      O        0.12050    0.26590    0.22110    1.000
    O34      O        0.00800    0.19805    0.20370    1.000
    O35      O        0.17190    0.18120    0.16700    1.000
    O36      O        0.09130    0.22783    0.96790    1.000
    O37      O        0.88810    0.27802    0.19060    1.000
    O38      O        0.83815    0.36536    0.21000    1.000
    O39      O        0.89750    0.33102    0.96170    1.000
    O40      O        0.99950    0.34574    0.18470    1.000
    O41      O        0.68139    0.13617    0.18790    1.000
    O42      O        0.82050    0.18454    0.21100    1.000
    O43      O        0.78510    0.14469    0.96080    1.000
    O44      O        0.82520    0.09367    0.19330    1.000
    O45      O        0.01300    0.07502    0.20760    1.000
    O46      O        0.11380    0.00086    0.19230    1.000
    O47      O        0.18150    0.08061    0.20860    1.000
    O48      O        0.10110    0.05472    0.96570    1.000
    P13      P        0.59795    0.71796    0.64240    1.000
    P14      P        0.40503    0.82935    0.63870    1.000
    P15      P        0.28005    0.63952    0.63770    1.000
    P16      P        0.60111    0.55285    0.64280    1.000
    Al13     Al       0.40640    0.72134    0.76820    1.000
    Al14     Al       0.59974    0.82545    0.76100    1.000
    Al15     Al       0.40681    0.55547    0.76480    1.000
    Al16     Al       0.72619    0.63522    0.76320    1.000
    O49      O        0.62050    0.76590    0.72110    1.000
    O50      O        0.50800    0.69805    0.70370    1.000
    O51      O        0.67190    0.68120    0.66700    1.000
    O52      O        0.59130    0.72783    0.46790    1.000
    O53      O        0.38810    0.77802    0.69060    1.000
    O54      O        0.33815    0.86536    0.71000    1.000
    O55      O        0.39750    0.83102    0.46170    1.000
    O56      O        0.49950    0.84574    0.68470    1.000
    O57      O        0.18139    0.63617    0.68790    1.000
    O58      O        0.32050    0.68454    0.71100    1.000
    O59      O        0.28510    0.64469    0.46080    1.000
    O60      O        0.32520    0.59367    0.69330    1.000
    O61      O        0.51300    0.57502    0.70760    1.000
    O62      O        0.61380    0.50086    0.69230    1.000
    O63      O        0.68150    0.58061    0.70860    1.000
    O64      O        0.60110    0.55472    0.46570    1.000
    P17      P        0.40205    0.71796    0.14240    1.000
    P18      P        0.59497    0.82935    0.13870    1.000
    P19      P        0.71995    0.63952    0.13770    1.000
    P20      P        0.39889    0.55285    0.14280    1.000
    Al17     Al       0.59360    0.72134    0.26820    1.000
    Al18     Al       0.40026    0.82545    0.26100    1.000
    Al19     Al       0.59319    0.55547    0.26480    1.000
    Al20     Al       0.27381    0.63522    0.26320    1.000
    O65      O        0.37950    0.76590    0.22110    1.000
    O66      O        0.49200    0.69805    0.20370    1.000
    O67      O        0.32810    0.68120    0.16700    1.000
    O68      O        0.40870    0.72783    0.96790    1.000
    O69      O        0.61190    0.77802    0.19060    1.000
    O70      O        0.66185    0.86536    0.21000    1.000
    O71      O        0.60250    0.83102    0.96170    1.000
    O72      O        0.50050    0.84574    0.18470    1.000
    O73      O        0.81861    0.63617    0.18790    1.000
    O74      O        0.67950    0.68454    0.21100    1.000
    O75      O        0.71490    0.64469    0.96080    1.000
    O76      O        0.67480    0.59367    0.19330    1.000
    O77      O        0.48700    0.57502    0.20760    1.000
    O78      O        0.38620    0.50086    0.19230    1.000
    O79      O        0.31850    0.58061    0.20860    1.000
    O80      O        0.39890    0.55472    0.96570    1.000
    P21      P        0.90205    0.21796    0.64240    1.000
    P22      P        0.09497    0.32935    0.63870    1.000
    P23      P        0.21995    0.13952    0.63770    1.000
    P24      P        0.89889    0.05285    0.64280    1.000
    Al21     Al       0.09360    0.22134    0.76820    1.000
    Al22     Al       0.90026    0.32545    0.76100    1.000
    Al23     Al       0.09319    0.05547    0.76480    1.000
    Al24     Al       0.77381    0.13522    0.76320    1.000
    O81      O        0.87950    0.26590    0.72110    1.000
    O82      O        0.99200    0.19805    0.70370    1.000
    O83      O        0.82810    0.18120    0.66700    1.000
    O84      O        0.90870    0.22783    0.46790    1.000
    O85      O        0.11190    0.27802    0.69060    1.000
    O86      O        0.16185    0.36536    0.71000    1.000
    O87      O        0.10250    0.33102    0.46170    1.000
    O88      O        0.00050    0.34574    0.68470    1.000
    O89      O        0.31861    0.13617    0.68790    1.000
    O90      O        0.17950    0.18454    0.71100    1.000
    O91      O        0.21490    0.14469    0.46080    1.000
    O92      O        0.17480    0.09367    0.69330    1.000
    O93      O        0.98700    0.07502    0.70760    1.000
    O94      O        0.88620    0.00086    0.69230    1.000
    O95      O        0.81850    0.08061    0.70860    1.000
    O96      O        0.89890    0.05472    0.46570    1.000
    P25      P        0.59795    0.28204    0.14240    1.000
    P26      P        0.40503    0.17065    0.13870    1.000
    P27      P        0.28005    0.36048    0.13770    1.000
    P28      P        0.60111    0.44715    0.14280    1.000
    Al25     Al       0.40640    0.27866    0.26820    1.000
    Al26     Al       0.59974    0.17455    0.26100    1.000
    Al27     Al       0.40681    0.44453    0.26480    1.000
    Al28     Al       0.72619    0.36478    0.26320    1.000
    O97      O        0.62050    0.23410    0.22110    1.000
    O98      O        0.50800    0.30195    0.20370    1.000
    O99      O        0.67190    0.31880    0.16700    1.000
    O100     O        0.59130    0.27217    0.96790    1.000
    O101     O        0.38810    0.22198    0.19060    1.000
    O102     O        0.33815    0.13464    0.21000    1.000
    O103     O        0.39750    0.16898    0.96170    1.000
    O104     O        0.49950    0.15426    0.18470    1.000
    O105     O        0.18139    0.36383    0.18790    1.000
    O106     O        0.32050    0.31546    0.21100    1.000
    O107     O        0.28510    0.35531    0.96080    1.000
    O108     O        0.32520    0.40633    0.19330    1.000
    O109     O        0.51300    0.42498    0.20760    1.000
    O110     O        0.61380    0.49914    0.19230    1.000
    O111     O        0.68150    0.41939    0.20860    1.000
    O112     O        0.60110    0.44528    0.96570    1.000
    P29      P        0.09795    0.78204    0.64240    1.000
    P30      P        0.90503    0.67065    0.63870    1.000
    P31      P        0.78005    0.86048    0.63770    1.000
    P32      P        0.10111    0.94715    0.64280    1.000
    Al29     Al       0.90640    0.77866    0.76820    1.000
    Al30     Al       0.09974    0.67455    0.76100    1.000
    Al31     Al       0.90681    0.94453    0.76480    1.000
    Al32     Al       0.22619    0.86478    0.76320    1.000
    O113     O        0.12050    0.73410    0.72110    1.000
    O114     O        0.00800    0.80195    0.70370    1.000
    O115     O        0.17190    0.81880    0.66700    1.000
    O116     O        0.09130    0.77217    0.46790    1.000
    O117     O        0.88810    0.72198    0.69060    1.000
    O118     O        0.83815    0.63464    0.71000    1.000
    O119     O        0.89750    0.66898    0.46170    1.000
    O120     O        0.99950    0.65426    0.68470    1.000
    O121     O        0.68139    0.86383    0.68790    1.000
    O122     O        0.82050    0.81546    0.71100    1.000
    O123     O        0.78510    0.85531    0.46080    1.000
    O124     O        0.82520    0.90633    0.69330    1.000
    O125     O        0.01300    0.92498    0.70760    1.000
    O126     O        0.11380    0.99914    0.69230    1.000
    O127     O        0.18150    0.91939    0.70860    1.000
    O128     O        0.10110    0.94528    0.46570    1.000
