# CIF file generated by openbabel 3.1.0, see https://openbabel.org
data_I
_chemical_name_common 'image0'
_cell_length_a 12.903
_cell_length_b 13.782
_cell_length_c 27.912
_cell_angle_alpha 75.64
_cell_angle_beta 79.46
_cell_angle_gamma 85.71
_space_group_name_H-M_alt 'P 1'
_space_group_name_Hall 'P 1'
loop_
    _symmetry_equiv_pos_as_xyz
    x,y,z
loop_
    _atom_site_label
    _atom_site_type_symbol
    _atom_site_fract_x
    _atom_site_fract_y
    _atom_site_fract_z
    _atom_site_occupancy
    Tb1      Tb       0.88016    0.02123    0.55365    1.000
    Tb2      Tb       0.47005    0.53812    0.41489    1.000
    Tb3      Tb       0.03018    0.87474    0.06046    1.000
    Tb4      Tb       0.51652    0.47940    0.91422    1.000
    O1       O        0.94570    0.93230    0.47205    1.000
    O2       O        0.79930    0.90020    0.52540    1.000
    O3       O        0.59940    0.56660    0.45600    1.000
    O4       O        0.62450    0.58960    0.52867    1.000
    O5       O        0.04470    0.88790    0.14420    1.000
    O6       O        0.92840    0.78600    0.14037    1.000
    O7       O        0.63700    0.51630    0.35742    1.000
    O8       O        0.59270    0.39200    0.42291    1.000
    O9       O        0.86820    0.13500    0.47597    1.000
    O10      O        0.01960    0.12600    0.42269    1.000
    O11      O        0.26060    0.66040    0.14770    1.000
    O12      O        0.32640    0.50900    0.14120    1.000
    O13      O        0.89010    0.98370    0.07700    1.000
    O14      O        0.87640    0.12730    0.02089    1.000
    O15      O        0.50560    0.35390    0.13850    1.000
    O16      O        0.61340    0.38940    0.06707    1.000
    O17      O        0.48870    0.69410    0.36320    1.000
    O18      O        0.44490    0.81490    0.40310    1.000
    O19      O        0.59600    0.57190    0.95410    1.000
    O20      O        0.61050    0.60840    0.02490    1.000
    O21      O        0.90060    0.96920    0.96650    1.000
    O22      O        0.89370    0.82760    0.02470    1.000
    O23      O        0.77720    0.93700    0.63470    1.000
    O24      O        0.91240    0.01750    0.63746    1.000
    C1       C        0.82430    0.82430    0.45690    1.000
    C2       C        0.74930    0.75240    0.48070    1.000
    H1       H        0.72270    0.74460    0.51470    1.000
    C3       C        0.71480    0.69360    0.45480    1.000
    C4       C        0.75180    0.70670    0.40400    1.000
    H2       H        0.72540    0.66780    0.38640    1.000
    C5       C        0.82770    0.77660    0.37850    1.000
    C6       C        0.86460    0.83480    0.40640    1.000
    H3       H        0.91670    0.88090    0.39080    1.000
    C7       C        0.86470    0.78840    0.32380    1.000
    C8       C        0.95950    0.83500    0.30040    1.000
    H4       H        0.00060    0.85760    0.31930    1.000
    C9       C        0.99260    0.84790    0.24910    1.000
    H5       H        0.05580    0.87930    0.23400    1.000
    C10      C        0.93370    0.81510    0.22050    1.000
    C11      C        0.84490    0.76350    0.24380    1.000
    H6       H        0.80680    0.73660    0.22520    1.000
    C12      C        0.81120    0.75090    0.29460    1.000
    H7       H        0.75020    0.71590    0.30960    1.000
    C13      C        0.85970    0.88890    0.48570    1.000
    C14      C        0.63980    0.61070    0.48120    1.000
    C15      C        0.97100    0.82990    0.16480    1.000
    C16      C        0.76430    0.38200    0.37400    1.000
    C17      C        0.79360    0.29870    0.40820    1.000
    H8       H        0.74790    0.27290    0.43780    1.000
    C18      C        0.89320    0.25340    0.39770    1.000
    C19      C        0.96030    0.29270    0.35370    1.000
    H9       H        0.02530    0.26080    0.34650    1.000
    C20      C        0.93270    0.37940    0.31970    1.000
    C21      C        0.83380    0.42310    0.33090    1.000
    H10      H        0.81370    0.48120    0.30900    1.000
    C22      C        0.01050    0.42770    0.27490    1.000
    C23      C        0.01550    0.53010    0.25990    1.000
    H11      H        0.96650    0.56980    0.27590    1.000
    C24      C        0.09320    0.57460    0.22100    1.000
    H12      H        0.09530    0.64420    0.21110    1.000
    C25      C        0.16760    0.51790    0.19670    1.000
    C26      C        0.16020    0.41480    0.21080    1.000
    H13      H        0.20840    0.37550    0.19410    1.000
    C27      C        0.08280    0.36920    0.24920    1.000
    H14      H        0.07870    0.29970    0.25790    1.000
    C28      C        0.65770    0.43390    0.38550    1.000
    C29      C        0.92950    0.16370    0.43520    1.000
    C30      C        0.25810    0.56650    0.15880    1.000
    C31      C        0.76390    0.10300    0.09960    1.000
    C32      C        0.71620    0.19870    0.08770    1.000
    H15      H        0.73920    0.24230    0.05690    1.000
    C33      C        0.63530    0.22900    0.12130    1.000
    C34      C        0.59930    0.16360    0.16680    1.000
    H16      H        0.54430    0.18400    0.18920    1.000
    C35      C        0.64450    0.06770    0.17950    1.000
    C36      C        0.72730    0.03950    0.14590    1.000
    H17      H        0.75920    0.97630    0.15450    1.000
    C37      C        0.60210    0.99640    0.22820    1.000
    C38      C        0.59910    0.89460    0.22910    1.000
    H18      H        0.62380    0.87190    0.20020    1.000
    C39      C        0.55840    0.82720    0.27390    1.000
    H19      H        0.55640    0.75940    0.27490    1.000
    C40      C        0.52070    0.86170    0.31730    1.000
    C41      C        0.52280    0.96150    0.31550    1.000
    H20      H        0.49650    0.98490    0.34400    1.000
    C42      C        0.56370    0.02750    0.27140    1.000
    H21      H        0.56540    0.09510    0.27090    1.000
    C43      C        0.85070    0.06970    0.06300    1.000
    C44      C        0.58070    0.32940    0.10830    1.000
    C45      C        0.48140    0.78590    0.36460    1.000
    C46      C        0.69960    0.70790    0.95110    1.000
    C47      C        0.75210    0.75400    0.97830    1.000
    H22      H        0.74500    0.73030    0.01290    1.000
    C48      C        0.81450    0.83470    0.95440    1.000
    C49      C        0.82410    0.86860    0.90300    1.000
    H23      H        0.86550    0.92350    0.88680    1.000
    C50      C        0.77440    0.82380    0.87490    1.000
    C51      C        0.71230    0.74180    0.89920    1.000
    H24      H        0.67920    0.70980    0.88080    1.000
    C52      C        0.79030    0.85860    0.81920    1.000
    C53      C        0.71200    0.85080    0.79270    1.000
    H25      H        0.64800    0.82380    0.81000    1.000
    C54      C        0.72710    0.88250    0.74090    1.000
    H26      H        0.67340    0.87670    0.72370    1.000
    C55      C        0.82260    0.92300    0.71440    1.000
    C56      C        0.89810    0.93080    0.74090    1.000
    H27      H        0.96190    0.95840    0.72360    1.000
    C57      C        0.88410    0.89930    0.79220    1.000
    H28      H        0.93830    0.90550    0.80900    1.000
    C58      C        0.63020    0.62400    0.97860    1.000
    C59      C        0.87270    0.88120    0.98390    1.000
    C60      C        0.83840    0.96160    0.65850    1.000
    Tb5      Tb       0.11984    0.97877    0.44635    1.000
    Tb6      Tb       0.52995    0.46188    0.58511    1.000
    Tb7      Tb       0.96982    0.12526    0.93954    1.000
    Tb8      Tb       0.48348    0.52060    0.08578    1.000
    O25      O        0.05430    0.06770    0.52795    1.000
    O26      O        0.20070    0.09980    0.47460    1.000
    O27      O        0.40060    0.43340    0.54400    1.000
    O28      O        0.37550    0.41040    0.47133    1.000
    O29      O        0.95530    0.11210    0.85580    1.000
    O30      O        0.07160    0.21400    0.85963    1.000
    O31      O        0.36300    0.48370    0.64258    1.000
    O32      O        0.40730    0.60800    0.57709    1.000
    O33      O        0.13180    0.86500    0.52403    1.000
    O34      O        0.98040    0.87400    0.57731    1.000
    O35      O        0.73940    0.33960    0.85230    1.000
    O36      O        0.67360    0.49100    0.85880    1.000
    O37      O        0.10990    0.01630    0.92300    1.000
    O38      O        0.12360    0.87270    0.97911    1.000
    O39      O        0.49440    0.64610    0.86150    1.000
    O40      O        0.38660    0.61060    0.93293    1.000
    O41      O        0.51130    0.30590    0.63680    1.000
    O42      O        0.55510    0.18510    0.59690    1.000
    O43      O        0.40400    0.42810    0.04590    1.000
    O44      O        0.38950    0.39160    0.97510    1.000
    O45      O        0.09940    0.03080    0.03350    1.000
    O46      O        0.10630    0.17240    0.97530    1.000
    O47      O        0.22280    0.06300    0.36530    1.000
    O48      O        0.08760    0.98250    0.36254    1.000
    C61      C        0.17570    0.17570    0.54310    1.000
    C62      C        0.25070    0.24760    0.51930    1.000
    H29      H        0.27730    0.25540    0.48530    1.000
    C63      C        0.28520    0.30640    0.54520    1.000
    C64      C        0.24820    0.29330    0.59600    1.000
    H30      H        0.27460    0.33220    0.61360    1.000
    C65      C        0.17230    0.22340    0.62150    1.000
    C66      C        0.13540    0.16520    0.59360    1.000
    H31      H        0.08330    0.11910    0.60920    1.000
    C67      C        0.13530    0.21160    0.67620    1.000
    C68      C        0.04050    0.16500    0.69960    1.000
    H32      H        0.99940    0.14240    0.68070    1.000
    C69      C        0.00740    0.15210    0.75090    1.000
    H33      H        0.94420    0.12070    0.76600    1.000
    C70      C        0.06630    0.18490    0.77950    1.000
    C71      C        0.15510    0.23650    0.75620    1.000
    H34      H        0.19320    0.26340    0.77480    1.000
    C72      C        0.18880    0.24910    0.70540    1.000
    H35      H        0.24980    0.28410    0.69040    1.000
    C73      C        0.14030    0.11110    0.51430    1.000
    C74      C        0.36020    0.38930    0.51880    1.000
    C75      C        0.02900    0.17010    0.83520    1.000
    C76      C        0.23570    0.61800    0.62600    1.000
    C77      C        0.20640    0.70130    0.59180    1.000
    H36      H        0.25210    0.72710    0.56220    1.000
    C78      C        0.10680    0.74660    0.60230    1.000
    C79      C        0.03970    0.70730    0.64630    1.000
    H37      H        0.97470    0.73920    0.65350    1.000
    C80      C        0.06730    0.62060    0.68030    1.000
    C81      C        0.16620    0.57690    0.66910    1.000
    H38      H        0.18630    0.51880    0.69100    1.000
    C82      C        0.98950    0.57230    0.72510    1.000
    C83      C        0.98450    0.46990    0.74010    1.000
    H39      H        0.03350    0.43020    0.72410    1.000
    C84      C        0.90680    0.42540    0.77900    1.000
    H40      H        0.90470    0.35580    0.78890    1.000
    C85      C        0.83240    0.48210    0.80330    1.000
    C86      C        0.83980    0.58520    0.78920    1.000
    H41      H        0.79160    0.62450    0.80590    1.000
    C87      C        0.91720    0.63080    0.75080    1.000
    H42      H        0.92130    0.70030    0.74210    1.000
    C88      C        0.34230    0.56610    0.61450    1.000
    C89      C        0.07050    0.83630    0.56480    1.000
    C90      C        0.74190    0.43350    0.84120    1.000
    C91      C        0.23610    0.89700    0.90040    1.000
    C92      C        0.28380    0.80130    0.91230    1.000
    H43      H        0.26080    0.75770    0.94310    1.000
    C93      C        0.36470    0.77100    0.87870    1.000
    C94      C        0.40070    0.83640    0.83320    1.000
    H44      H        0.45570    0.81600    0.81080    1.000
    C95      C        0.35550    0.93230    0.82050    1.000
    C96      C        0.27270    0.96050    0.85410    1.000
    H45      H        0.24080    0.02370    0.84550    1.000
    C97      C        0.39790    0.00360    0.77180    1.000
    C98      C        0.40090    0.10540    0.77090    1.000
    H46      H        0.37620    0.12810    0.79980    1.000
    C99      C        0.44160    0.17280    0.72610    1.000
    H47      H        0.44360    0.24060    0.72510    1.000
    C100     C        0.47930    0.13830    0.68270    1.000
    C101     C        0.47720    0.03850    0.68450    1.000
    H48      H        0.50350    0.01510    0.65600    1.000
    C102     C        0.43630    0.97250    0.72860    1.000
    H49      H        0.43460    0.90490    0.72910    1.000
    C103     C        0.14930    0.93030    0.93700    1.000
    C104     C        0.41930    0.67060    0.89170    1.000
    C105     C        0.51860    0.21410    0.63540    1.000
    C106     C        0.30040    0.29210    0.04890    1.000
    C107     C        0.24790    0.24600    0.02170    1.000
    H50      H        0.25500    0.26970    0.98710    1.000
    C108     C        0.18550    0.16530    0.04560    1.000
    C109     C        0.17590    0.13140    0.09700    1.000
    H51      H        0.13450    0.07650    0.11320    1.000
    C110     C        0.22560    0.17620    0.12510    1.000
    C111     C        0.28770    0.25820    0.10080    1.000
    H52      H        0.32080    0.29020    0.11920    1.000
    C112     C        0.20970    0.14140    0.18080    1.000
    C113     C        0.28800    0.14920    0.20730    1.000
    H53      H        0.35200    0.17620    0.19000    1.000
    C114     C        0.27290    0.11750    0.25910    1.000
    H54      H        0.32660    0.12330    0.27630    1.000
    C115     C        0.17740    0.07700    0.28560    1.000
    C116     C        0.10190    0.06920    0.25910    1.000
    H55      H        0.03810    0.04160    0.27640    1.000
    C117     C        0.11590    0.10070    0.20780    1.000
    H56      H        0.06170    0.09450    0.19100    1.000
    C118     C        0.36980    0.37600    0.02140    1.000
    C119     C        0.12730    0.11880    0.01610    1.000
    C120     C        0.16160    0.03840    0.34150    1.000
