# CIF file generated by openbabel 3.1.0, see https://openbabel.org
data_I
_chemical_name_common 'REJLEY_clean'
_cell_length_a 11.4482
_cell_length_b 11.5408
_cell_length_c 11.7663
_cell_angle_alpha 65.37
_cell_angle_beta 80.54
_cell_angle_gamma 72.759
_space_group_name_H-M_alt 'P 1'
_space_group_name_Hall 'P 1'
loop_
    _symmetry_equiv_pos_as_xyz
    x,y,z
loop_
    _atom_site_label
    _atom_site_type_symbol
    _atom_site_fract_x
    _atom_site_fract_y
    _atom_site_fract_z
    _atom_site_occupancy
    Co1      Co       0.50000    0.00000    0.50000    1.000
    Co2      Co       0.50000    0.50000    0.00000    1.000
    Co3      Co       0.50000    0.50000    0.50000    1.000
    H1       H        0.54500    0.16180    0.17790    1.000
    H2       H        0.70160    0.87430    0.70390    1.000
    H3       H        0.90960    0.77990    0.72010    1.000
    H4       H        0.94570    0.94180    0.34130    1.000
    H5       H        0.73690    0.03000    0.33770    1.000
    H6       H        0.07670    0.61860    0.70380    1.000
    H7       H        0.27830    0.50320    0.69300    1.000
    H8       H        0.33970    0.77700    0.36920    1.000
    H9       H        0.14100    0.90310    0.37100    1.000
    H10      H        0.65760    0.68460    0.97760    1.000
    H11      H        0.85690    0.69190    0.97420    1.000
    H12      H        0.96190    0.30610    0.03770    1.000
    H13      H        0.75880    0.30860    0.04330    1.000
    H14      H        0.45500    0.83820    0.82210    1.000
    H15      H        0.29840    0.12570    0.29610    1.000
    H16      H        0.09040    0.22010    0.27990    1.000
    H17      H        0.05430    0.05820    0.65870    1.000
    H18      H        0.26310    0.97000    0.66230    1.000
    H19      H        0.92330    0.38140    0.29620    1.000
    H20      H        0.72170    0.49680    0.30700    1.000
    H21      H        0.66030    0.22300    0.63080    1.000
    H22      H        0.85900    0.09690    0.62900    1.000
    H23      H        0.34240    0.31540    0.02240    1.000
    H24      H        0.14310    0.30810    0.02580    1.000
    H25      H        0.03810    0.69390    0.96230    1.000
    H26      H        0.24120    0.69140    0.95670    1.000
    C1       C        0.52420    0.21640    0.22410    1.000
    C2       C        0.47780    0.27870    0.37810    1.000
    C3       C        0.48100    0.38780    0.26840    1.000
    C4       C        0.44700    0.25660    0.51160    1.000
    C5       C        0.46150    0.53160    0.23460    1.000
    C6       C        0.75190    0.88590    0.62920    1.000
    C7       C        0.87620    0.82880    0.63990    1.000
    C8       C        0.95210    0.84380    0.53180    1.000
    C9       C        0.89730    0.92380    0.41750    1.000
    C10      C        0.77260    0.97640    0.41630    1.000
    C11      C        0.08380    0.77410    0.53530    1.000
    C12      C        0.12860    0.65300    0.63320    1.000
    C13      C        0.24900    0.58450    0.62560    1.000
    C14      C        0.28500    0.74410    0.43740    1.000
    C15      C        0.16610    0.81990    0.43760    1.000
    C16      C        0.72070    0.60610    0.98960    1.000
    C17      C        0.83990    0.61160    0.98670    1.000
    C18      C        0.93440    0.50000    0.00220    1.000
    C19      C        0.90070    0.38630    0.02430    1.000
    C20      C        0.77920    0.38830    0.02710    1.000
    C21      C        0.47580    0.78360    0.77590    1.000
    C22      C        0.52220    0.72130    0.62190    1.000
    C23      C        0.51900    0.61220    0.73160    1.000
    C24      C        0.55300    0.74340    0.48840    1.000
    C25      C        0.53850    0.46840    0.76540    1.000
    C26      C        0.24810    0.11410    0.37080    1.000
    C27      C        0.12380    0.17120    0.36010    1.000
    C28      C        0.04790    0.15620    0.46820    1.000
    C29      C        0.10270    0.07620    0.58250    1.000
    C30      C        0.22740    0.02360    0.58370    1.000
    C31      C        0.91620    0.22590    0.46470    1.000
    C32      C        0.87140    0.34700    0.36680    1.000
    C33      C        0.75100    0.41550    0.37440    1.000
    C34      C        0.71500    0.25590    0.56260    1.000
    C35      C        0.83390    0.18010    0.56240    1.000
    C36      C        0.27930    0.39390    0.01040    1.000
    C37      C        0.16010    0.38840    0.01330    1.000
    C38      C        0.06560    0.50000    0.99780    1.000
    C39      C        0.09930    0.61370    0.97570    1.000
    C40      C        0.22080    0.61170    0.97290    1.000
    N1       N        0.50580    0.17070    0.34800    1.000
    N2       N        0.51040    0.34660    0.17130    1.000
    N3       N        0.69840    0.95630    0.51990    1.000
    N4       N        0.32660    0.62620    0.52890    1.000
    N5       N        0.68890    0.49850    0.00780    1.000
    N6       N        0.49420    0.82930    0.65200    1.000
    N7       N        0.48960    0.65340    0.82870    1.000
    N8       N        0.30160    0.04370    0.48010    1.000
    N9       N        0.67340    0.37380    0.47110    1.000
    N10      N        0.31110    0.50150    0.99220    1.000
    O1       O        0.41490    0.35050    0.54690    1.000
    O2       O        0.45260    0.13780    0.58590    1.000
    O3       O        0.45720    0.57760    0.31440    1.000
    O4       O        0.45150    0.60350    0.11880    1.000
    O5       O        0.58510    0.64950    0.45310    1.000
    O6       O        0.54740    0.86220    0.41410    1.000
    O7       O        0.54280    0.42240    0.68560    1.000
    O8       O        0.54850    0.39650    0.88120    1.000
