# CIF file generated by openbabel 3.1.0, see https://openbabel.org
data_I
_chemical_name_common 'KIYMIP_clean'
_cell_length_a 8.1984
_cell_length_b 24.094
_cell_length_c 11.307
_cell_angle_alpha 90
_cell_angle_beta 90
_cell_angle_gamma 90
_space_group_name_H-M_alt 'P 1'
_space_group_name_Hall 'P 1'
loop_
    _symmetry_equiv_pos_as_xyz
    x,y,z
loop_
    _atom_site_label
    _atom_site_type_symbol
    _atom_site_fract_x
    _atom_site_fract_y
    _atom_site_fract_z
    _atom_site_occupancy
    Ni1      Ni       0.90934    0.81500    0.47060    1.000
    Ni2      Ni       0.09066    0.18500    0.47060    1.000
    Ni3      Ni       0.40934    0.68500    0.52940    1.000
    Ni4      Ni       0.59066    0.31500    0.52940    1.000
    H1       H        0.40030    0.81880    0.74290    1.000
    H2       H        0.37640    0.89490    0.86460    1.000
    H3       H        0.65700    0.98210    0.64000    1.000
    H4       H        0.71230    0.77000    0.26220    1.000
    H5       H        0.70780    0.76840    0.06100    1.000
    H6       H        0.09070    0.87140    0.06110    1.000
    H7       H        0.08460    0.86980    0.26320    1.000
    H8       H        0.82090    0.73900    0.88180    1.000
    H9       H        0.83180    0.73790    0.67940    1.000
    H10      H        0.00950    0.88790    0.67340    1.000
    H11      H        0.00130    0.89310    0.87460    1.000
    H12      H        0.59970    0.18120    0.74290    1.000
    H13      H        0.62360    0.10510    0.86460    1.000
    H14      H        0.34300    0.01790    0.64000    1.000
    H15      H        0.28770    0.23000    0.26220    1.000
    H16      H        0.29220    0.23160    0.06100    1.000
    H17      H        0.90930    0.12860    0.06110    1.000
    H18      H        0.91540    0.13020    0.26320    1.000
    H19      H        0.17910    0.26100    0.88180    1.000
    H20      H        0.16820    0.26210    0.67940    1.000
    H21      H        0.99050    0.11210    0.67340    1.000
    H22      H        0.99870    0.10690    0.87460    1.000
    H23      H        0.90030    0.68120    0.25710    1.000
    H24      H        0.87640    0.60510    0.13540    1.000
    H25      H        0.15700    0.51790    0.36000    1.000
    H26      H        0.21230    0.73000    0.73780    1.000
    H27      H        0.20780    0.73160    0.93900    1.000
    H28      H        0.59070    0.62860    0.93890    1.000
    H29      H        0.58460    0.63020    0.73680    1.000
    H30      H        0.32090    0.76100    0.11820    1.000
    H31      H        0.33180    0.76210    0.32060    1.000
    H32      H        0.50950    0.61210    0.32660    1.000
    H33      H        0.50130    0.60690    0.12540    1.000
    H34      H        0.09970    0.31880    0.25710    1.000
    H35      H        0.12360    0.39490    0.13540    1.000
    H36      H        0.84300    0.48210    0.36000    1.000
    H37      H        0.78770    0.27000    0.73780    1.000
    H38      H        0.79220    0.26840    0.93900    1.000
    H39      H        0.40930    0.37140    0.93890    1.000
    H40      H        0.41540    0.36980    0.73680    1.000
    H41      H        0.67910    0.23900    0.11820    1.000
    H42      H        0.66820    0.23790    0.32060    1.000
    H43      H        0.49050    0.38790    0.32660    1.000
    H44      H        0.49870    0.39310    0.12540    1.000
    C1       C        0.61870    0.90300    0.58720    1.000
    C2       C        0.54000    0.85384    0.61720    1.000
    C3       C        0.45120    0.85178    0.72170    1.000
    C4       C        0.43620    0.89729    0.79490    1.000
    C5       C        0.51220    0.94724    0.76320    1.000
    C6       C        0.60420    0.94932    0.66040    1.000
    C7       C        0.71030    0.91100    0.47120    1.000
    C8       C        0.54790    0.80254    0.54060    1.000
    C9       C        0.65580    0.00010    0.91930    1.000
    C10      C        0.79030    0.79042    0.22110    1.000
    C11      C        0.78700    0.78903    0.10010    1.000
    C12      C        0.90270    0.81871    0.03560    1.000
    C13      C        0.01320    0.84990    0.09990    1.000
    C14      C        0.00820    0.84890    0.22180    1.000
    C15      C        0.90740    0.81691    0.90410    1.000
    C16      C        0.85850    0.77011    0.84140    1.000
    C17      C        0.86540    0.76965    0.71920    1.000
    C18      C        0.96960    0.85780    0.71590    1.000
    C19      C        0.96520    0.86104    0.83700    1.000
    C20      C        0.38130    0.09700    0.58720    1.000
    C21      C        0.46000    0.14616    0.61720    1.000
    C22      C        0.54880    0.14822    0.72170    1.000
    C23      C        0.56380    0.10271    0.79490    1.000
    C24      C        0.48780    0.05276    0.76320    1.000
    C25      C        0.39580    0.05068    0.66040    1.000
    C26      C        0.28970    0.08900    0.47120    1.000
    C27      C        0.45210    0.19746    0.54060    1.000
    C28      C        0.34420    0.99990    0.91930    1.000
    C29      C        0.20970    0.20958    0.22110    1.000
    C30      C        0.21300    0.21097    0.10010    1.000
    C31      C        0.09730    0.18129    0.03560    1.000
    C32      C        0.98680    0.15010    0.09990    1.000
    C33      C        0.99180    0.15110    0.22180    1.000
    C34      C        0.09260    0.18309    0.90410    1.000
    C35      C        0.14150    0.22989    0.84140    1.000
    C36      C        0.13460    0.23035    0.71920    1.000
    C37      C        0.03040    0.14220    0.71590    1.000
    C38      C        0.03480    0.13896    0.83700    1.000
    C39      C        0.11870    0.59700    0.41280    1.000
    C40      C        0.04000    0.64616    0.38280    1.000
    C41      C        0.95120    0.64822    0.27830    1.000
    C42      C        0.93620    0.60271    0.20510    1.000
    C43      C        0.01220    0.55276    0.23680    1.000
    C44      C        0.10420    0.55068    0.33960    1.000
    C45      C        0.21030    0.58900    0.52880    1.000
    C46      C        0.04790    0.69746    0.45940    1.000
    C47      C        0.15580    0.49990    0.08070    1.000
    C48      C        0.29030    0.70958    0.77890    1.000
    C49      C        0.28700    0.71097    0.89990    1.000
    C50      C        0.40270    0.68129    0.96440    1.000
    C51      C        0.51320    0.65010    0.90010    1.000
    C52      C        0.50820    0.65110    0.77820    1.000
    C53      C        0.40740    0.68309    0.09590    1.000
    C54      C        0.35850    0.72989    0.15860    1.000
    C55      C        0.36540    0.73035    0.28080    1.000
    C56      C        0.46960    0.64220    0.28410    1.000
    C57      C        0.46520    0.63896    0.16300    1.000
    C58      C        0.88130    0.40300    0.41280    1.000
    C59      C        0.96000    0.35384    0.38280    1.000
    C60      C        0.04880    0.35178    0.27830    1.000
    C61      C        0.06380    0.39729    0.20510    1.000
    C62      C        0.98780    0.44724    0.23680    1.000
    C63      C        0.89580    0.44932    0.33960    1.000
    C64      C        0.78970    0.41100    0.52880    1.000
    C65      C        0.95210    0.30254    0.45940    1.000
    C66      C        0.84420    0.50010    0.08070    1.000
    C67      C        0.70970    0.29042    0.77890    1.000
    C68      C        0.71300    0.28903    0.89990    1.000
    C69      C        0.59730    0.31871    0.96440    1.000
    C70      C        0.48680    0.34990    0.90010    1.000
    C71      C        0.49180    0.34890    0.77820    1.000
    C72      C        0.59260    0.31691    0.09590    1.000
    C73      C        0.64150    0.27011    0.15860    1.000
    C74      C        0.63460    0.26965    0.28080    1.000
    C75      C        0.53040    0.35780    0.28410    1.000
    C76      C        0.53480    0.36104    0.16300    1.000
    C77      C        0.50000    0.00000    0.84140    1.000
    C78      C        0.00000    0.50000    0.15860    1.000
    N1       N        0.89920    0.81938    0.28360    1.000
    N2       N        0.91830    0.81271    0.65620    1.000
    N3       N        0.10080    0.18062    0.28360    1.000
    N4       N        0.08170    0.18729    0.65620    1.000
    N5       N        0.39920    0.68062    0.71640    1.000
    N6       N        0.41830    0.68729    0.34380    1.000
    N7       N        0.60080    0.31938    0.71640    1.000
    N8       N        0.58170    0.31271    0.34380    1.000
    O1       O        0.63310    0.93072    0.38810    1.000
    O2       O        0.86210    0.89922    0.47090    1.000
    O3       O        0.66460    0.79484    0.47150    1.000
    O4       O        0.42970    0.76938    0.55180    1.000
    O5       O        0.36690    0.06928    0.38810    1.000
    O6       O        0.13790    0.10078    0.47090    1.000
    O7       O        0.33540    0.20516    0.47150    1.000
    O8       O        0.57030    0.23062    0.55180    1.000
    O9       O        0.13310    0.56928    0.61190    1.000
    O10      O        0.36210    0.60078    0.52910    1.000
    O11      O        0.16460    0.70516    0.52850    1.000
    O12      O        0.92970    0.73062    0.44820    1.000
    O13      O        0.86690    0.43072    0.61190    1.000
    O14      O        0.63790    0.39922    0.52910    1.000
    O15      O        0.83540    0.29484    0.52850    1.000
    O16      O        0.07030    0.26938    0.44820    1.000
    F1       F        0.67550    0.95036    0.97190    1.000
    F2       F        0.78850    0.01029    0.85690    1.000
    F3       F        0.64960    0.03729    0.00700    1.000
    F4       F        0.32450    0.04964    0.97190    1.000
    F5       F        0.21150    0.98971    0.85690    1.000
    F6       F        0.35040    0.96271    0.00700    1.000
    F7       F        0.17550    0.54964    0.02810    1.000
    F8       F        0.28850    0.48971    0.14310    1.000
    F9       F        0.14960    0.46271    0.99300    1.000
    F10      F        0.82450    0.45036    0.02810    1.000
    F11      F        0.71150    0.51029    0.14310    1.000
    F12      F        0.85040    0.53729    0.99300    1.000
