# CIF file generated by openbabel 3.1.0, see https://openbabel.org
data_I
_chemical_name_common 'image0'
_cell_length_a 18.346
_cell_length_b 18.346
_cell_length_c 18.346
_cell_angle_alpha 90
_cell_angle_beta 90
_cell_angle_gamma 90
_space_group_name_H-M_alt 'P 1'
_space_group_name_Hall 'P 1'
loop_
    _symmetry_equiv_pos_as_xyz
    x,y,z
loop_
    _atom_site_label
    _atom_site_type_symbol
    _atom_site_fract_x
    _atom_site_fract_y
    _atom_site_fract_z
    _atom_site_occupancy
    Cu1      Cu       0.37850    0.19880    0.94680    1.000
    O1       O        0.33200    0.20800    0.03800    1.000
    O2       O        0.22350    0.19540    0.09700    1.000
    O3       O        0.29040    0.14710    0.92210    1.000
    O4       O        0.17540    0.19140    0.94690    1.000
    H1       H        0.15930    0.17150    0.90960    1.000
    O5       O        0.22690    0.02450    0.94750    1.000
    O6       O        0.16510    0.06200    0.04170    1.000
    C1       C        0.26260    0.19060    0.04180    1.000
    C2       C        0.23530    0.15100    0.97370    1.000
    C3       C        0.20690    0.07350    0.99030    1.000
    Cu2      Cu       0.36200    0.22080    0.94040    1.000
    O7       O        0.31600    0.23230    0.03600    1.000
    Cu3      Cu       0.12150    0.80120    0.44680    1.000
    O8       O        0.16800    0.79200    0.53800    1.000
    O9       O        0.27650    0.80460    0.59700    1.000
    O10      O        0.20960    0.85290    0.42210    1.000
    O11      O        0.32460    0.80860    0.44690    1.000
    H2       H        0.34070    0.82850    0.40960    1.000
    O12      O        0.27310    0.97550    0.44750    1.000
    O13      O        0.33490    0.93800    0.54170    1.000
    C4       C        0.23740    0.80940    0.54180    1.000
    C5       C        0.26470    0.84900    0.47370    1.000
    C6       C        0.29310    0.92650    0.49030    1.000
    Cu4      Cu       0.13800    0.77920    0.44040    1.000
    O14      O        0.18400    0.76770    0.53600    1.000
    Cu5      Cu       0.62150    0.69880    0.55320    1.000
    O15      O        0.66800    0.70800    0.46200    1.000
    O16      O        0.77650    0.69540    0.40300    1.000
    O17      O        0.70960    0.64710    0.57790    1.000
    O18      O        0.82460    0.69140    0.55310    1.000
    H3       H        0.84070    0.67150    0.59040    1.000
    O19      O        0.77310    0.52450    0.55250    1.000
    O20      O        0.83490    0.56200    0.45830    1.000
    C7       C        0.73740    0.69060    0.45820    1.000
    C8       C        0.76470    0.65100    0.52630    1.000
    C9       C        0.79310    0.57350    0.50970    1.000
    Cu6      Cu       0.63800    0.72080    0.55960    1.000
    O21      O        0.68400    0.73230    0.46400    1.000
    Cu7      Cu       0.87850    0.30120    0.05320    1.000
    O22      O        0.83200    0.29200    0.96200    1.000
    O23      O        0.72350    0.30460    0.90300    1.000
    O24      O        0.79040    0.35290    0.07790    1.000
    O25      O        0.67540    0.30860    0.05310    1.000
    H4       H        0.65930    0.32850    0.09040    1.000
    O26      O        0.72690    0.47550    0.05250    1.000
    O27      O        0.66510    0.43800    0.95830    1.000
    C10      C        0.76260    0.30940    0.95820    1.000
    C11      C        0.73530    0.34900    0.02630    1.000
    C12      C        0.70690    0.42650    0.00970    1.000
    Cu8      Cu       0.86200    0.27920    0.05960    1.000
    O28      O        0.81600    0.26770    0.96400    1.000
    Cu9      Cu       0.94680    0.37850    0.19880    1.000
    O29      O        0.03800    0.33200    0.20800    1.000
    O30      O        0.09700    0.22350    0.19540    1.000
    O31      O        0.92210    0.29040    0.14710    1.000
    O32      O        0.94690    0.17540    0.19140    1.000
    H5       H        0.90960    0.15930    0.17150    1.000
    O33      O        0.94750    0.22690    0.02450    1.000
    O34      O        0.04170    0.16510    0.06200    1.000
    C13      C        0.04180    0.26260    0.19060    1.000
    C14      C        0.97370    0.23530    0.15100    1.000
    C15      C        0.99030    0.20690    0.07350    1.000
    Cu10     Cu       0.94040    0.36200    0.22080    1.000
    O35      O        0.03600    0.31600    0.23230    1.000
    Cu11     Cu       0.44680    0.12150    0.80120    1.000
    O36      O        0.53800    0.16800    0.79200    1.000
    O37      O        0.59700    0.27650    0.80460    1.000
    O38      O        0.42210    0.20960    0.85290    1.000
    O39      O        0.44690    0.32460    0.80860    1.000
    H6       H        0.40960    0.34070    0.82850    1.000
    O40      O        0.44750    0.27310    0.97550    1.000
    O41      O        0.54170    0.33490    0.93800    1.000
    C16      C        0.54180    0.23740    0.80940    1.000
    C17      C        0.47370    0.26470    0.84900    1.000
    C18      C        0.49030    0.29310    0.92650    1.000
    Cu12     Cu       0.44040    0.13800    0.77920    1.000
    O42      O        0.53600    0.18400    0.76770    1.000
    Cu13     Cu       0.55320    0.62150    0.69880    1.000
    O43      O        0.46200    0.66800    0.70800    1.000
    O44      O        0.40300    0.77650    0.69540    1.000
    O45      O        0.57790    0.70960    0.64710    1.000
    O46      O        0.55310    0.82460    0.69140    1.000
    H7       H        0.59040    0.84070    0.67150    1.000
    O47      O        0.55250    0.77310    0.52450    1.000
    O48      O        0.45830    0.83490    0.56200    1.000
    C19      C        0.45820    0.73740    0.69060    1.000
    C20      C        0.52630    0.76470    0.65100    1.000
    C21      C        0.50970    0.79310    0.57350    1.000
    Cu14     Cu       0.55960    0.63800    0.72080    1.000
    O49      O        0.46400    0.68400    0.73230    1.000
    Cu15     Cu       0.05320    0.87850    0.30120    1.000
    O50      O        0.96200    0.83200    0.29200    1.000
    O51      O        0.90300    0.72350    0.30460    1.000
    O52      O        0.07790    0.79040    0.35290    1.000
    O53      O        0.05310    0.67540    0.30860    1.000
    H8       H        0.09040    0.65930    0.32850    1.000
    O54      O        0.05250    0.72690    0.47550    1.000
    O55      O        0.95830    0.66510    0.43800    1.000
    C22      C        0.95820    0.76260    0.30940    1.000
    C23      C        0.02630    0.73530    0.34900    1.000
    C24      C        0.00970    0.70690    0.42650    1.000
    Cu16     Cu       0.05960    0.86200    0.27920    1.000
    O56      O        0.96400    0.81600    0.26770    1.000
    Cu17     Cu       0.19880    0.94680    0.37850    1.000
    O57      O        0.20800    0.03800    0.33200    1.000
    O58      O        0.19540    0.09700    0.22350    1.000
    O59      O        0.14710    0.92210    0.29040    1.000
    O60      O        0.19140    0.94690    0.17540    1.000
    H9       H        0.17150    0.90960    0.15930    1.000
    O61      O        0.02450    0.94750    0.22690    1.000
    O62      O        0.06200    0.04170    0.16510    1.000
    C25      C        0.19060    0.04180    0.26260    1.000
    C26      C        0.15100    0.97370    0.23530    1.000
    C27      C        0.07350    0.99030    0.20690    1.000
    Cu18     Cu       0.22080    0.94040    0.36200    1.000
    O63      O        0.23230    0.03600    0.31600    1.000
    Cu19     Cu       0.80120    0.44680    0.12150    1.000
    O64      O        0.79200    0.53800    0.16800    1.000
    O65      O        0.80460    0.59700    0.27650    1.000
    O66      O        0.85290    0.42210    0.20960    1.000
    O67      O        0.80860    0.44690    0.32460    1.000
    H10      H        0.82850    0.40960    0.34070    1.000
    O68      O        0.97550    0.44750    0.27310    1.000
    O69      O        0.93800    0.54170    0.33490    1.000
    C28      C        0.80940    0.54180    0.23740    1.000
    C29      C        0.84900    0.47370    0.26470    1.000
    C30      C        0.92650    0.49030    0.29310    1.000
    Cu20     Cu       0.77920    0.44040    0.13800    1.000
    O70      O        0.76770    0.53600    0.18400    1.000
    Cu21     Cu       0.69880    0.55320    0.62150    1.000
    O71      O        0.70800    0.46200    0.66800    1.000
    O72      O        0.69540    0.40300    0.77650    1.000
    O73      O        0.64710    0.57790    0.70960    1.000
    O74      O        0.69140    0.55310    0.82460    1.000
    H11      H        0.67150    0.59040    0.84070    1.000
    O75      O        0.52450    0.55250    0.77310    1.000
    O76      O        0.56200    0.45830    0.83490    1.000
    C31      C        0.69060    0.45820    0.73740    1.000
    C32      C        0.65100    0.52630    0.76470    1.000
    C33      C        0.57350    0.50970    0.79310    1.000
    Cu22     Cu       0.72080    0.55960    0.63800    1.000
    O77      O        0.73230    0.46400    0.68400    1.000
    Cu23     Cu       0.30120    0.05320    0.87850    1.000
    O78      O        0.29200    0.96200    0.83200    1.000
    O79      O        0.30460    0.90300    0.72350    1.000
    O80      O        0.35290    0.07790    0.79040    1.000
    O81      O        0.30860    0.05310    0.67540    1.000
    H12      H        0.32850    0.09040    0.65930    1.000
    O82      O        0.47550    0.05250    0.72690    1.000
    O83      O        0.43800    0.95830    0.66510    1.000
    C34      C        0.30940    0.95820    0.76260    1.000
    C35      C        0.34900    0.02630    0.73530    1.000
    C36      C        0.42650    0.00970    0.70690    1.000
    Cu24     Cu       0.27920    0.05960    0.86200    1.000
    O84      O        0.26770    0.96400    0.81600    1.000
    Cu25     Cu       0.62150    0.80120    0.05320    1.000
    O85      O        0.66800    0.79200    0.96200    1.000
    O86      O        0.77650    0.80460    0.90300    1.000
    O87      O        0.70960    0.85290    0.07790    1.000
    O88      O        0.82460    0.80860    0.05310    1.000
    H13      H        0.84070    0.82850    0.09040    1.000
    O89      O        0.77310    0.97550    0.05250    1.000
    O90      O        0.83490    0.93800    0.95830    1.000
    C37      C        0.73740    0.80940    0.95820    1.000
    C38      C        0.76470    0.84900    0.02630    1.000
    C39      C        0.79310    0.92650    0.00970    1.000
    Cu26     Cu       0.63800    0.77920    0.05960    1.000
    O91      O        0.68400    0.76770    0.96400    1.000
    Cu27     Cu       0.87850    0.19880    0.55320    1.000
    O92      O        0.83200    0.20800    0.46200    1.000
    O93      O        0.72350    0.19540    0.40300    1.000
    O94      O        0.79040    0.14710    0.57790    1.000
    O95      O        0.67540    0.19140    0.55310    1.000
    H14      H        0.65930    0.17150    0.59040    1.000
    O96      O        0.72690    0.02450    0.55250    1.000
    O97      O        0.66510    0.06200    0.45830    1.000
    C40      C        0.76260    0.19060    0.45820    1.000
    C41      C        0.73530    0.15100    0.52630    1.000
    C42      C        0.70690    0.07350    0.50970    1.000
    Cu28     Cu       0.86200    0.22080    0.55960    1.000
    O98      O        0.81600    0.23230    0.46400    1.000
    Cu29     Cu       0.37850    0.30120    0.44680    1.000
    O99      O        0.33200    0.29200    0.53800    1.000
    O100     O        0.22350    0.30460    0.59700    1.000
    O101     O        0.29040    0.35290    0.42210    1.000
    O102     O        0.17540    0.30860    0.44690    1.000
    H15      H        0.15930    0.32850    0.40960    1.000
    O103     O        0.22690    0.47550    0.44750    1.000
    O104     O        0.16510    0.43800    0.54170    1.000
    C43      C        0.26260    0.30940    0.54180    1.000
    C44      C        0.23530    0.34900    0.47370    1.000
    C45      C        0.20690    0.42650    0.49030    1.000
    Cu30     Cu       0.36200    0.27920    0.44040    1.000
    O105     O        0.31600    0.26770    0.53600    1.000
    Cu31     Cu       0.12150    0.69880    0.94680    1.000
    O106     O        0.16800    0.70800    0.03800    1.000
    O107     O        0.27650    0.69540    0.09700    1.000
    O108     O        0.20960    0.64710    0.92210    1.000
    O109     O        0.32460    0.69140    0.94690    1.000
    H16      H        0.34070    0.67150    0.90960    1.000
    O110     O        0.27310    0.52450    0.94750    1.000
    O111     O        0.33490    0.56200    0.04170    1.000
    C46      C        0.23740    0.69060    0.04180    1.000
    C47      C        0.26470    0.65100    0.97370    1.000
    C48      C        0.29310    0.57350    0.99030    1.000
    Cu32     Cu       0.13800    0.72080    0.94040    1.000
    O112     O        0.18400    0.73230    0.03600    1.000
    Cu33     Cu       0.05320    0.62150    0.80120    1.000
    O113     O        0.96200    0.66800    0.79200    1.000
    O114     O        0.90300    0.77650    0.80460    1.000
    O115     O        0.07790    0.70960    0.85290    1.000
    O116     O        0.05310    0.82460    0.80860    1.000
    H17      H        0.09040    0.84070    0.82850    1.000
    O117     O        0.05250    0.77310    0.97550    1.000
    O118     O        0.95830    0.83490    0.93800    1.000
    C49      C        0.95820    0.73740    0.80940    1.000
    C50      C        0.02630    0.76470    0.84900    1.000
    C51      C        0.00970    0.79310    0.92650    1.000
    Cu34     Cu       0.05960    0.63800    0.77920    1.000
    O119     O        0.96400    0.68400    0.76770    1.000
    Cu35     Cu       0.55320    0.87850    0.19880    1.000
    O120     O        0.46200    0.83200    0.20800    1.000
    O121     O        0.40300    0.72350    0.19540    1.000
    O122     O        0.57790    0.79040    0.14710    1.000
    O123     O        0.55310    0.67540    0.19140    1.000
    H18      H        0.59040    0.65930    0.17150    1.000
    O124     O        0.55250    0.72690    0.02450    1.000
    O125     O        0.45830    0.66510    0.06200    1.000
    C52      C        0.45820    0.76260    0.19060    1.000
    C53      C        0.52630    0.73530    0.15100    1.000
    C54      C        0.50970    0.70690    0.07350    1.000
    Cu36     Cu       0.55960    0.86200    0.22080    1.000
    O126     O        0.46400    0.81600    0.23230    1.000
    Cu37     Cu       0.44680    0.37850    0.30120    1.000
    O127     O        0.53800    0.33200    0.29200    1.000
    O128     O        0.59700    0.22350    0.30460    1.000
    O129     O        0.42210    0.29040    0.35290    1.000
    O130     O        0.44690    0.17540    0.30860    1.000
    H19      H        0.40960    0.15930    0.32850    1.000
    O131     O        0.44750    0.22690    0.47550    1.000
    O132     O        0.54170    0.16510    0.43800    1.000
    C55      C        0.54180    0.26260    0.30940    1.000
    C56      C        0.47370    0.23530    0.34900    1.000
    C57      C        0.49030    0.20690    0.42650    1.000
    Cu38     Cu       0.44040    0.36200    0.27920    1.000
    O133     O        0.53600    0.31600    0.26770    1.000
    Cu39     Cu       0.94680    0.12150    0.69880    1.000
    O134     O        0.03800    0.16800    0.70800    1.000
    O135     O        0.09700    0.27650    0.69540    1.000
    O136     O        0.92210    0.20960    0.64710    1.000
    O137     O        0.94690    0.32460    0.69140    1.000
    H20      H        0.90960    0.34070    0.67150    1.000
    O138     O        0.94750    0.27310    0.52450    1.000
    O139     O        0.04170    0.33490    0.56200    1.000
    C58      C        0.04180    0.23740    0.69060    1.000
    C59      C        0.97370    0.26470    0.65100    1.000
    C60      C        0.99030    0.29310    0.57350    1.000
    Cu40     Cu       0.94040    0.13800    0.72080    1.000
    O140     O        0.03600    0.18400    0.73230    1.000
    Cu41     Cu       0.80120    0.05320    0.62150    1.000
    O141     O        0.79200    0.96200    0.66800    1.000
    O142     O        0.80460    0.90300    0.77650    1.000
    O143     O        0.85290    0.07790    0.70960    1.000
    O144     O        0.80860    0.05310    0.82460    1.000
    H21      H        0.82850    0.09040    0.84070    1.000
    O145     O        0.97550    0.05250    0.77310    1.000
    O146     O        0.93800    0.95830    0.83490    1.000
    C61      C        0.80940    0.95820    0.73740    1.000
    C62      C        0.84900    0.02630    0.76470    1.000
    C63      C        0.92650    0.00970    0.79310    1.000
    Cu42     Cu       0.77920    0.05960    0.63800    1.000
    O147     O        0.76770    0.96400    0.68400    1.000
    Cu43     Cu       0.19880    0.55320    0.87850    1.000
    O148     O        0.20800    0.46200    0.83200    1.000
    O149     O        0.19540    0.40300    0.72350    1.000
    O150     O        0.14710    0.57790    0.79040    1.000
    O151     O        0.19140    0.55310    0.67540    1.000
    H22      H        0.17150    0.59040    0.65930    1.000
    O152     O        0.02450    0.55250    0.72690    1.000
    O153     O        0.06200    0.45830    0.66510    1.000
    C64      C        0.19060    0.45820    0.76260    1.000
    C65      C        0.15100    0.52630    0.73530    1.000
    C66      C        0.07350    0.50970    0.70690    1.000
    Cu44     Cu       0.22080    0.55960    0.86200    1.000
    O154     O        0.23230    0.46400    0.81600    1.000
    Cu45     Cu       0.30120    0.44680    0.37850    1.000
    O155     O        0.29200    0.53800    0.33200    1.000
    O156     O        0.30460    0.59700    0.22350    1.000
    O157     O        0.35290    0.42210    0.29040    1.000
    O158     O        0.30860    0.44690    0.17540    1.000
    H23      H        0.32850    0.40960    0.15930    1.000
    O159     O        0.47550    0.44750    0.22690    1.000
    O160     O        0.43800    0.54170    0.16510    1.000
    C67      C        0.30940    0.54180    0.26260    1.000
    C68      C        0.34900    0.47370    0.23530    1.000
    C69      C        0.42650    0.49030    0.20690    1.000
    Cu46     Cu       0.27920    0.44040    0.36200    1.000
    O161     O        0.26770    0.53600    0.31600    1.000
    Cu47     Cu       0.69880    0.94680    0.12150    1.000
    O162     O        0.70800    0.03800    0.16800    1.000
    O163     O        0.69540    0.09700    0.27650    1.000
    O164     O        0.64710    0.92210    0.20960    1.000
    O165     O        0.69140    0.94690    0.32460    1.000
    H24      H        0.67150    0.90960    0.34070    1.000
    O166     O        0.52450    0.94750    0.27310    1.000
    O167     O        0.56200    0.04170    0.33490    1.000
    C70      C        0.69060    0.04180    0.23740    1.000
    C71      C        0.65100    0.97370    0.26470    1.000
    C72      C        0.57350    0.99030    0.29310    1.000
    Cu48     Cu       0.72080    0.94040    0.13800    1.000
    O168     O        0.73230    0.03600    0.18400    1.000
    Mn1      Mn       0.13092    0.13092    0.13092    1.000
    Mn2      Mn       0.36908    0.86908    0.63092    1.000
    Mn3      Mn       0.86908    0.63092    0.36908    1.000
    Mn4      Mn       0.63092    0.36908    0.86908    1.000
    Mn5      Mn       0.86908    0.86908    0.86908    1.000
    Mn6      Mn       0.63092    0.13092    0.36908    1.000
    Mn7      Mn       0.13092    0.36908    0.63092    1.000
    Mn8      Mn       0.36908    0.63092    0.13092    1.000
    K1       K        0.43660    0.06340    0.93660    1.000
    K2       K        0.06340    0.93660    0.43660    1.000
    K3       K        0.56340    0.56340    0.56340    1.000
    K4       K        0.93660    0.43660    0.06340    1.000
    K5       K        0.56340    0.93660    0.06340    1.000
    K6       K        0.93660    0.06340    0.56340    1.000
    K7       K        0.43660    0.43660    0.43660    1.000
    K8       K        0.06340    0.56340    0.93660    1.000
