# CIF file generated by openbabel 3.1.0, see https://openbabel.org
data_I
_chemical_name_common 'image0'
_cell_length_a 8.701
_cell_length_b 9.21
_cell_length_c 12.385
_cell_angle_alpha 111.11
_cell_angle_beta 101.42
_cell_angle_gamma 102.08
_space_group_name_H-M_alt 'P 1'
_space_group_name_Hall 'P 1'
loop_
    _symmetry_equiv_pos_as_xyz
    x,y,z
loop_
    _atom_site_label
    _atom_site_type_symbol
    _atom_site_fract_x
    _atom_site_fract_y
    _atom_site_fract_z
    _atom_site_occupancy
    Al1      Al       0.69850    0.20960    0.62410    1.000
    Al2      Al       0.64940    0.78230    0.14430    1.000
    Al3      Al       0.98020    0.66940    0.94280    1.000
    Al4      Al       0.50510    0.20670    0.14620    1.000
    P1       P        0.59900    0.48400    0.80110    1.000
    P2       P        0.55710    0.05490    0.34330    1.000
    P3       P        0.77940    0.05170    0.06780    1.000
    P4       P        0.03630    0.34320    0.81930    1.000
    O1       O        0.67320    0.15990    0.47230    1.000
    O2       O        0.51640    0.16430    0.28350    1.000
    O3       O        0.90940    0.25940    0.69350    1.000
    O4       O        0.51160    0.74810    0.99840    1.000
    O5       O        0.63670    0.93480    0.27680    1.000
    O6       O        0.50850    0.59500    0.77000    1.000
    O7       O        0.51210    0.38620    0.85780    1.000
    O8       O        0.39470    0.96010    0.35400    1.000
    O9       O        0.62340    0.37120    0.68400    1.000
    O10      O        0.07150    0.52840    0.86780    1.000
    O11      O        0.76950    0.59180    0.89030    1.000
    O12      O        0.19450    0.30430    0.81300    1.000
    O13      O        0.69280    0.16520    0.13470    1.000
    O14      O        0.95040    0.15570    0.07870    1.000
    O15      O        0.80950    0.93440    0.12420    1.000
    O16      O        0.68360    0.95820    0.93290    1.000
    O17      O        0.95800    0.28310    0.90260    1.000
    Al5      Al       0.30150    0.79040    0.37590    1.000
    Al6      Al       0.35060    0.21770    0.85570    1.000
    Al7      Al       0.01980    0.33060    0.05720    1.000
    Al8      Al       0.49490    0.79330    0.85380    1.000
    P5       P        0.40100    0.51600    0.19890    1.000
    P6       P        0.44290    0.94510    0.65670    1.000
    P7       P        0.22060    0.94830    0.93220    1.000
    P8       P        0.96370    0.65680    0.18070    1.000
    O18      O        0.32680    0.84010    0.52770    1.000
    O19      O        0.48360    0.83570    0.71650    1.000
    O20      O        0.09060    0.74060    0.30650    1.000
    O21      O        0.48840    0.25190    0.00160    1.000
    O22      O        0.36330    0.06520    0.72320    1.000
    O23      O        0.49150    0.40500    0.23000    1.000
    O24      O        0.48790    0.61380    0.14220    1.000
    O25      O        0.60530    0.03990    0.64600    1.000
    O26      O        0.37660    0.62880    0.31600    1.000
    O27      O        0.92850    0.47160    0.13220    1.000
    O28      O        0.23050    0.40820    0.10970    1.000
    O29      O        0.80550    0.69570    0.18700    1.000
    O30      O        0.30720    0.83480    0.86530    1.000
    O31      O        0.04960    0.84430    0.92130    1.000
    O32      O        0.19050    0.06560    0.87580    1.000
    O33      O        0.31640    0.04180    0.06710    1.000
    O34      O        0.04200    0.71690    0.09740    1.000
