# CIF file generated by openbabel 3.1.0, see https://openbabel.org
data_I
_chemical_name_common 'image0'
_cell_length_a 8.1217
_cell_length_b 8.9601
_cell_length_c 10.4611
_cell_angle_alpha 111.93
_cell_angle_beta 103.655
_cell_angle_gamma 101.903
_space_group_name_H-M_alt 'P 1'
_space_group_name_Hall 'P 1'
loop_
    _symmetry_equiv_pos_as_xyz
    x,y,z
loop_
    _atom_site_label
    _atom_site_type_symbol
    _atom_site_fract_x
    _atom_site_fract_y
    _atom_site_fract_z
    _atom_site_occupancy
    Ga1      Ga       0.19859    0.35167    0.36296    1.000
    Ga2      Ga       0.72345    0.00093    0.44691    1.000
    P1       P        0.45080    0.72570    0.48356    1.000
    P2       P        0.99090    0.97020    0.29119    1.000
    F1       F        0.14490    0.22700    0.15800    1.000
    O1       O        0.96810    0.40860    0.31390    1.000
    O2       O        0.32160    0.55710    0.35830    1.000
    O3       O        0.79060    0.51650    0.42970    1.000
    O4       O        0.58980    0.70550    0.59350    1.000
    O5       O        0.05310    0.16150    0.37440    1.000
    O6       O        0.80610    0.90110    0.30010    1.000
    O7       O        0.34970    0.82590    0.57200    1.000
    O8       O        0.52870    0.82670    0.40880    1.000
    O9       O        0.97820    0.89960    0.13210    1.000
    O10      O        0.12030    0.89890    0.36660    1.000
    C1       C        0.93070    0.47780    0.42550    1.000
    Ga3      Ga       0.80141    0.64833    0.63704    1.000
    Ga4      Ga       0.27655    0.99907    0.55309    1.000
    P3       P        0.54920    0.27430    0.51644    1.000
    P4       P        0.00910    0.02980    0.70881    1.000
    F2       F        0.85510    0.77300    0.84200    1.000
    O11      O        0.03190    0.59140    0.68610    1.000
    O12      O        0.67840    0.44290    0.64170    1.000
    O13      O        0.20940    0.48350    0.57030    1.000
    O14      O        0.41020    0.29450    0.40650    1.000
    O15      O        0.94690    0.83850    0.62560    1.000
    O16      O        0.19390    0.09890    0.69990    1.000
    O17      O        0.65030    0.17410    0.42800    1.000
    O18      O        0.47130    0.17330    0.59120    1.000
    O19      O        0.02180    0.10040    0.86790    1.000
    O20      O        0.87970    0.10110    0.63340    1.000
    C2       C        0.06930    0.52220    0.57450    1.000
    Ga5      Ga       0.00000    0.00000    0.00000    1.000
