# CIF file generated by openbabel 3.1.0, see https://openbabel.org
data_I
_chemical_name_common 'image0'
_cell_length_a 13.0836
_cell_length_b 13.0836
_cell_length_c 8.0916
_cell_angle_alpha 90
_cell_angle_beta 90
_cell_angle_gamma 90
_space_group_name_H-M_alt 'P 1'
_space_group_name_Hall 'P 1'
loop_
    _symmetry_equiv_pos_as_xyz
    x,y,z
loop_
    _atom_site_label
    _atom_site_type_symbol
    _atom_site_fract_x
    _atom_site_fract_y
    _atom_site_fract_z
    _atom_site_occupancy
    N1       N        0.16930    0.16000    0.59210    1.000
    N2       N        0.01530    0.03450    0.06160    1.000
    C1       C        0.11510    0.20380    0.47300    1.000
    H1       H        0.10400    0.27390    0.47790    1.000
    C2       C        0.07420    0.14950    0.34100    1.000
    H2       H        0.03660    0.18340    0.26030    1.000
    C3       C        0.08860    0.04840    0.33000    1.000
    C4       C        0.13970    0.00250    0.46000    1.000
    H3       H        0.14700    0.93180    0.46220    1.000
    C5       C        0.17880    0.05900    0.58420    1.000
    H4       H        0.21420    0.02530    0.66810    1.000
    C6       C        0.04960    0.99050    0.19000    1.000
    H5       H        0.04960    0.91940    0.19530    1.000
    N3       N        0.33070    0.34000    0.59210    1.000
    N4       N        0.48470    0.46550    0.06160    1.000
    C7       C        0.38490    0.29620    0.47300    1.000
    H6       H        0.39600    0.22610    0.47790    1.000
    C8       C        0.42580    0.35050    0.34100    1.000
    H7       H        0.46340    0.31660    0.26030    1.000
    C9       C        0.41140    0.45160    0.33000    1.000
    C10      C        0.36030    0.49750    0.46000    1.000
    H8       H        0.35300    0.56820    0.46220    1.000
    C11      C        0.32120    0.44100    0.58420    1.000
    H9       H        0.28580    0.47470    0.66810    1.000
    C12      C        0.45040    0.50950    0.19000    1.000
    H10      H        0.45040    0.58060    0.19530    1.000
    N5       N        0.84000    0.66930    0.09210    1.000
    N6       N        0.96550    0.51530    0.56160    1.000
    C13      C        0.79620    0.61510    0.97300    1.000
    H11      H        0.72610    0.60400    0.97790    1.000
    C14      C        0.85050    0.57420    0.84100    1.000
    H12      H        0.81660    0.53660    0.76030    1.000
    C15      C        0.95160    0.58860    0.83000    1.000
    C16      C        0.99750    0.63970    0.96000    1.000
    H13      H        0.06820    0.64700    0.96220    1.000
    C17      C        0.94100    0.67880    0.08420    1.000
    H14      H        0.97470    0.71420    0.16810    1.000
    C18      C        0.00950    0.54960    0.69000    1.000
    H15      H        0.08060    0.54960    0.69530    1.000
    N7       N        0.66000    0.83070    0.09210    1.000
    N8       N        0.53450    0.98470    0.56160    1.000
    C19      C        0.70380    0.88490    0.97300    1.000
    H16      H        0.77390    0.89600    0.97790    1.000
    C20      C        0.64950    0.92580    0.84100    1.000
    H17      H        0.68340    0.96340    0.76030    1.000
    C21      C        0.54840    0.91140    0.83000    1.000
    C22      C        0.50250    0.86030    0.96000    1.000
    H18      H        0.43180    0.85300    0.96220    1.000
    C23      C        0.55900    0.82120    0.08420    1.000
    H19      H        0.52530    0.78580    0.16810    1.000
    C24      C        0.49050    0.95040    0.69000    1.000
    H20      H        0.41940    0.95040    0.69530    1.000
    N9       N        0.83070    0.84000    0.40790    1.000
    N10      N        0.98470    0.96550    0.93840    1.000
    C25      C        0.88490    0.79620    0.52700    1.000
    H21      H        0.89600    0.72610    0.52210    1.000
    C26      C        0.92580    0.85050    0.65900    1.000
    H22      H        0.96340    0.81660    0.73970    1.000
    C27      C        0.91140    0.95160    0.67000    1.000
    C28      C        0.86030    0.99750    0.54000    1.000
    H23      H        0.85300    0.06820    0.53780    1.000
    C29      C        0.82120    0.94100    0.41580    1.000
    H24      H        0.78580    0.97470    0.33190    1.000
    C30      C        0.95040    0.00950    0.81000    1.000
    H25      H        0.95040    0.08060    0.80470    1.000
    N11      N        0.66930    0.66000    0.40790    1.000
    N12      N        0.51530    0.53450    0.93840    1.000
    C31      C        0.61510    0.70380    0.52700    1.000
    H26      H        0.60400    0.77390    0.52210    1.000
    C32      C        0.57420    0.64950    0.65900    1.000
    H27      H        0.53660    0.68340    0.73970    1.000
    C33      C        0.58860    0.54840    0.67000    1.000
    C34      C        0.63970    0.50250    0.54000    1.000
    H28      H        0.64700    0.43180    0.53780    1.000
    C35      C        0.67880    0.55900    0.41580    1.000
    H29      H        0.71420    0.52530    0.33190    1.000
    C36      C        0.54960    0.49050    0.81000    1.000
    H30      H        0.54960    0.41940    0.80470    1.000
    N13      N        0.16000    0.33070    0.90790    1.000
    N14      N        0.03450    0.48470    0.43840    1.000
    C37      C        0.20380    0.38490    0.02700    1.000
    H31      H        0.27390    0.39600    0.02210    1.000
    C38      C        0.14950    0.42580    0.15900    1.000
    H32      H        0.18340    0.46340    0.23970    1.000
    C39      C        0.04840    0.41140    0.17000    1.000
    C40      C        0.00250    0.36030    0.04000    1.000
    H33      H        0.93180    0.35300    0.03780    1.000
    C41      C        0.05900    0.32120    0.91580    1.000
    H34      H        0.02530    0.28580    0.83190    1.000
    C42      C        0.99050    0.45040    0.31000    1.000
    H35      H        0.91940    0.45040    0.30470    1.000
    N15      N        0.34000    0.16930    0.90790    1.000
    N16      N        0.46550    0.01530    0.43840    1.000
    C43      C        0.29620    0.11510    0.02700    1.000
    H36      H        0.22610    0.10400    0.02210    1.000
    C44      C        0.35050    0.07420    0.15900    1.000
    H37      H        0.31660    0.03660    0.23970    1.000
    C45      C        0.45160    0.08860    0.17000    1.000
    C46      C        0.49750    0.13970    0.04000    1.000
    H38      H        0.56820    0.14700    0.03780    1.000
    C47      C        0.44100    0.17880    0.91580    1.000
    H39      H        0.47470    0.21420    0.83190    1.000
    C48      C        0.50950    0.04960    0.31000    1.000
    H40      H        0.58060    0.04960    0.30470    1.000
    Cu1      Cu       0.25000    0.25000    0.75000    1.000
    Cu2      Cu       0.75000    0.75000    0.25000    1.000
