# CIF file generated by openbabel 3.1.0, see https://openbabel.org
data_I
_chemical_name_common 'image0'
_cell_length_a 12.1678
_cell_length_b 22.691
_cell_length_c 34.3938
_cell_angle_alpha 90
_cell_angle_beta 90
_cell_angle_gamma 90
_space_group_name_H-M_alt 'P 1'
_space_group_name_Hall 'P 1'
loop_
    _symmetry_equiv_pos_as_xyz
    x,y,z
loop_
    _atom_site_label
    _atom_site_type_symbol
    _atom_site_fract_x
    _atom_site_fract_y
    _atom_site_fract_z
    _atom_site_occupancy
    Zn1      Zn       0.99281    0.57513    0.75201    1.000
    N1       N        0.06250    0.48980    0.74931    1.000
    N2       N        0.13820    0.40050    0.74576    1.000
    O1       O        0.93730    0.54120    0.80375    1.000
    O2       O        0.93780    0.46320    0.84195    1.000
    C1       C        0.12680    0.45300    0.72890    1.000
    O3       O        0.01850    0.34650    0.83402    1.000
    O4       O        0.15160    0.31210    0.79699    1.000
    C2       C        0.07630    0.40280    0.77921    1.000
    C3       C        0.03020    0.45760    0.78123    1.000
    C4       C        0.18390    0.46940    0.69270    1.000
    N3       N        0.29260    0.43910    0.63781    1.000
    C5       C        0.07950    0.35110    0.80550    1.000
    C6       C        0.25390    0.54050    0.64760    1.000
    H1       H        0.26070    0.57920    0.63910    1.000
    C7       C        0.19570    0.52750    0.68090    1.000
    H2       H        0.16430    0.55770    0.69540    1.000
    C8       C        0.30130    0.49550    0.62730    1.000
    H3       H        0.34170    0.50450    0.60520    1.000
    C9       C        0.96210    0.48770    0.81140    1.000
    C10      C        0.23420    0.42650    0.67000    1.000
    H4       H        0.22730    0.38730    0.67740    1.000
    Zn2      Zn       0.99281    0.07513    0.25201    1.000
    N4       N        0.06250    0.98980    0.24931    1.000
    N5       N        0.13820    0.90050    0.24576    1.000
    O5       O        0.93730    0.04120    0.30375    1.000
    O6       O        0.93780    0.96320    0.34195    1.000
    C11      C        0.12680    0.95300    0.22890    1.000
    O7       O        0.01850    0.84650    0.33402    1.000
    O8       O        0.15160    0.81210    0.29699    1.000
    C12      C        0.07630    0.90280    0.27921    1.000
    C13      C        0.03020    0.95760    0.28123    1.000
    C14      C        0.18390    0.96940    0.19270    1.000
    N6       N        0.29260    0.93910    0.13781    1.000
    C15      C        0.07950    0.85110    0.30550    1.000
    C16      C        0.25390    0.04050    0.14760    1.000
    H5       H        0.26070    0.07920    0.13910    1.000
    C17      C        0.19570    0.02750    0.18090    1.000
    H6       H        0.16430    0.05770    0.19540    1.000
    C18      C        0.30130    0.99550    0.12730    1.000
    H7       H        0.34170    0.00450    0.10520    1.000
    C19      C        0.96210    0.98770    0.31140    1.000
    C20      C        0.23420    0.92650    0.17000    1.000
    H8       H        0.22730    0.88730    0.17740    1.000
    Zn3      Zn       0.49281    0.57513    0.25201    1.000
    N7       N        0.56250    0.48980    0.24931    1.000
    N8       N        0.63820    0.40050    0.24576    1.000
    O9       O        0.43730    0.54120    0.30375    1.000
    O10      O        0.43780    0.46320    0.34195    1.000
    C21      C        0.62680    0.45300    0.22890    1.000
    O11      O        0.51850    0.34650    0.33402    1.000
    O12      O        0.65160    0.31210    0.29699    1.000
    C22      C        0.57630    0.40280    0.27921    1.000
    C23      C        0.53020    0.45760    0.28123    1.000
    C24      C        0.68390    0.46940    0.19270    1.000
    N9       N        0.79260    0.43910    0.13781    1.000
    C25      C        0.57950    0.35110    0.30550    1.000
    C26      C        0.75390    0.54050    0.14760    1.000
    H9       H        0.76070    0.57920    0.13910    1.000
    C27      C        0.69570    0.52750    0.18090    1.000
    H10      H        0.66430    0.55770    0.19540    1.000
    C28      C        0.80130    0.49550    0.12730    1.000
    H11      H        0.84170    0.50450    0.10520    1.000
    C29      C        0.46210    0.48770    0.31140    1.000
    C30      C        0.73420    0.42650    0.17000    1.000
    H12      H        0.72730    0.38730    0.17740    1.000
    Zn4      Zn       0.49281    0.07513    0.75201    1.000
    N10      N        0.56250    0.98980    0.74931    1.000
    N11      N        0.63820    0.90050    0.74576    1.000
    O13      O        0.43730    0.04120    0.80375    1.000
    O14      O        0.43780    0.96320    0.84195    1.000
    C31      C        0.62680    0.95300    0.72890    1.000
    O15      O        0.51850    0.84650    0.83402    1.000
    O16      O        0.65160    0.81210    0.79699    1.000
    C32      C        0.57630    0.90280    0.77921    1.000
    C33      C        0.53020    0.95760    0.78123    1.000
    C34      C        0.68390    0.96940    0.69270    1.000
    N12      N        0.79260    0.93910    0.63781    1.000
    C35      C        0.57950    0.85110    0.80550    1.000
    C36      C        0.75390    0.04050    0.64760    1.000
    H13      H        0.76070    0.07920    0.63910    1.000
    C37      C        0.69570    0.02750    0.68090    1.000
    H14      H        0.66430    0.05770    0.69540    1.000
    C38      C        0.80130    0.99550    0.62730    1.000
    H15      H        0.84170    0.00450    0.60520    1.000
    C39      C        0.46210    0.98770    0.81140    1.000
    C40      C        0.73420    0.92650    0.67000    1.000
    H16      H        0.72730    0.88730    0.67740    1.000
    Zn5      Zn       0.75719    0.17487    0.75201    1.000
    N13      N        0.68750    0.26020    0.74931    1.000
    N14      N        0.61180    0.34950    0.74576    1.000
    O17      O        0.81270    0.20880    0.80375    1.000
    O18      O        0.81220    0.28680    0.84195    1.000
    C41      C        0.62320    0.29700    0.72890    1.000
    O19      O        0.73150    0.40350    0.83402    1.000
    O20      O        0.59840    0.43790    0.79699    1.000
    C42      C        0.67370    0.34720    0.77921    1.000
    C43      C        0.71980    0.29240    0.78123    1.000
    C44      C        0.56610    0.28060    0.69270    1.000
    N15      N        0.45740    0.31090    0.63781    1.000
    C45      C        0.67050    0.39890    0.80550    1.000
    C46      C        0.49610    0.20950    0.64760    1.000
    H17      H        0.48930    0.17080    0.63910    1.000
    C47      C        0.55430    0.22250    0.68090    1.000
    H18      H        0.58570    0.19230    0.69540    1.000
    C48      C        0.44870    0.25450    0.62730    1.000
    H19      H        0.40830    0.24550    0.60520    1.000
    C49      C        0.78790    0.26230    0.81140    1.000
    C50      C        0.51580    0.32350    0.67000    1.000
    H20      H        0.52270    0.36270    0.67740    1.000
    Zn6      Zn       0.75719    0.67487    0.25201    1.000
    N16      N        0.68750    0.76020    0.24931    1.000
    N17      N        0.61180    0.84950    0.24576    1.000
    O21      O        0.81270    0.70880    0.30375    1.000
    O22      O        0.81220    0.78680    0.34195    1.000
    C51      C        0.62320    0.79700    0.22890    1.000
    O23      O        0.73150    0.90350    0.33402    1.000
    O24      O        0.59840    0.93790    0.29699    1.000
    C52      C        0.67370    0.84720    0.27921    1.000
    C53      C        0.71980    0.79240    0.28123    1.000
    C54      C        0.56610    0.78060    0.19270    1.000
    N18      N        0.45740    0.81090    0.13781    1.000
    C55      C        0.67050    0.89890    0.30550    1.000
    C56      C        0.49610    0.70950    0.14760    1.000
    H21      H        0.48930    0.67080    0.13910    1.000
    C57      C        0.55430    0.72250    0.18090    1.000
    H22      H        0.58570    0.69230    0.19540    1.000
    C58      C        0.44870    0.75450    0.12730    1.000
    H23      H        0.40830    0.74550    0.10520    1.000
    C59      C        0.78790    0.76230    0.31140    1.000
    C60      C        0.51580    0.82350    0.17000    1.000
    H24      H        0.52270    0.86270    0.17740    1.000
    Zn7      Zn       0.25719    0.17487    0.25201    1.000
    N19      N        0.18750    0.26020    0.24931    1.000
    N20      N        0.11180    0.34950    0.24576    1.000
    O25      O        0.31270    0.20880    0.30375    1.000
    O26      O        0.31220    0.28680    0.34195    1.000
    C61      C        0.12320    0.29700    0.22890    1.000
    O27      O        0.23150    0.40350    0.33402    1.000
    O28      O        0.09840    0.43790    0.29699    1.000
    C62      C        0.17370    0.34720    0.27921    1.000
    C63      C        0.21980    0.29240    0.28123    1.000
    C64      C        0.06610    0.28060    0.19270    1.000
    N21      N        0.95740    0.31090    0.13781    1.000
    C65      C        0.17050    0.39890    0.30550    1.000
    C66      C        0.99610    0.20950    0.14760    1.000
    H25      H        0.98930    0.17080    0.13910    1.000
    C67      C        0.05430    0.22250    0.18090    1.000
    H26      H        0.08570    0.19230    0.19540    1.000
    C68      C        0.94870    0.25450    0.12730    1.000
    H27      H        0.90830    0.24550    0.10520    1.000
    C69      C        0.28790    0.26230    0.31140    1.000
    C70      C        0.01580    0.32350    0.17000    1.000
    H28      H        0.02270    0.36270    0.17740    1.000
    Zn8      Zn       0.25719    0.67487    0.75201    1.000
    N22      N        0.18750    0.76020    0.74931    1.000
    N23      N        0.11180    0.84950    0.74576    1.000
    O29      O        0.31270    0.70880    0.80375    1.000
    O30      O        0.31220    0.78680    0.84195    1.000
    C71      C        0.12320    0.79700    0.72890    1.000
    O31      O        0.23150    0.90350    0.83402    1.000
    O32      O        0.09840    0.93790    0.79699    1.000
    C72      C        0.17370    0.84720    0.77921    1.000
    C73      C        0.21980    0.79240    0.78123    1.000
    C74      C        0.06610    0.78060    0.69270    1.000
    N24      N        0.95740    0.81090    0.63781    1.000
    C75      C        0.17050    0.89890    0.80550    1.000
    C76      C        0.99610    0.70950    0.64760    1.000
    H29      H        0.98930    0.67080    0.63910    1.000
    C77      C        0.05430    0.72250    0.68090    1.000
    H30      H        0.08570    0.69230    0.69540    1.000
    C78      C        0.94870    0.75450    0.62730    1.000
    H31      H        0.90830    0.74550    0.60520    1.000
    C79      C        0.28790    0.76230    0.81140    1.000
    C80      C        0.01580    0.82350    0.67000    1.000
    H32      H        0.02270    0.86270    0.67740    1.000
    Zn9      Zn       0.75719    0.57513    0.99799    1.000
    N25      N        0.68750    0.48980    0.00069    1.000
    N26      N        0.61180    0.40050    0.00424    1.000
    O33      O        0.81270    0.54120    0.94625    1.000
    O34      O        0.81220    0.46320    0.90805    1.000
    C81      C        0.62320    0.45300    0.02110    1.000
    O35      O        0.73150    0.34650    0.91598    1.000
    O36      O        0.59840    0.31210    0.95301    1.000
    C82      C        0.67370    0.40280    0.97079    1.000
    C83      C        0.71980    0.45760    0.96877    1.000
    C84      C        0.56610    0.46940    0.05730    1.000
    N27      N        0.45740    0.43910    0.11219    1.000
    C85      C        0.67050    0.35110    0.94450    1.000
    C86      C        0.49610    0.54050    0.10240    1.000
    H33      H        0.48930    0.57920    0.11090    1.000
    C87      C        0.55430    0.52750    0.06910    1.000
    H34      H        0.58570    0.55770    0.05460    1.000
    C88      C        0.44870    0.49550    0.12270    1.000
    H35      H        0.40830    0.50450    0.14480    1.000
    C89      C        0.78790    0.48770    0.93860    1.000
    C90      C        0.51580    0.42650    0.08000    1.000
    H36      H        0.52270    0.38730    0.07260    1.000
    Zn10     Zn       0.75719    0.07513    0.49799    1.000
    N28      N        0.68750    0.98980    0.50069    1.000
    N29      N        0.61180    0.90050    0.50424    1.000
    O37      O        0.81270    0.04120    0.44625    1.000
    O38      O        0.81220    0.96320    0.40805    1.000
    C91      C        0.62320    0.95300    0.52110    1.000
    O39      O        0.73150    0.84650    0.41598    1.000
    O40      O        0.59840    0.81210    0.45301    1.000
    C92      C        0.67370    0.90280    0.47079    1.000
    C93      C        0.71980    0.95760    0.46877    1.000
    C94      C        0.56610    0.96940    0.55730    1.000
    N30      N        0.45740    0.93910    0.61219    1.000
    C95      C        0.67050    0.85110    0.44450    1.000
    C96      C        0.49610    0.04050    0.60240    1.000
    H37      H        0.48930    0.07920    0.61090    1.000
    C97      C        0.55430    0.02750    0.56910    1.000
    H38      H        0.58570    0.05770    0.55460    1.000
    C98      C        0.44870    0.99550    0.62270    1.000
    H39      H        0.40830    0.00450    0.64480    1.000
    C99      C        0.78790    0.98770    0.43860    1.000
    C100     C        0.51580    0.92650    0.58000    1.000
    H40      H        0.52270    0.88730    0.57260    1.000
    Zn11     Zn       0.25719    0.57513    0.49799    1.000
    N31      N        0.18750    0.48980    0.50069    1.000
    N32      N        0.11180    0.40050    0.50424    1.000
    O41      O        0.31270    0.54120    0.44625    1.000
    O42      O        0.31220    0.46320    0.40805    1.000
    C101     C        0.12320    0.45300    0.52110    1.000
    O43      O        0.23150    0.34650    0.41598    1.000
    O44      O        0.09840    0.31210    0.45301    1.000
    C102     C        0.17370    0.40280    0.47079    1.000
    C103     C        0.21980    0.45760    0.46877    1.000
    C104     C        0.06610    0.46940    0.55730    1.000
    N33      N        0.95740    0.43910    0.61219    1.000
    C105     C        0.17050    0.35110    0.44450    1.000
    C106     C        0.99610    0.54050    0.60240    1.000
    H41      H        0.98930    0.57920    0.61090    1.000
    C107     C        0.05430    0.52750    0.56910    1.000
    H42      H        0.08570    0.55770    0.55460    1.000
    C108     C        0.94870    0.49550    0.62270    1.000
    H43      H        0.90830    0.50450    0.64480    1.000
    C109     C        0.28790    0.48770    0.43860    1.000
    C110     C        0.01580    0.42650    0.58000    1.000
    H44      H        0.02270    0.38730    0.57260    1.000
    Zn12     Zn       0.25719    0.07513    0.99799    1.000
    N34      N        0.18750    0.98980    0.00069    1.000
    N35      N        0.11180    0.90050    0.00424    1.000
    O45      O        0.31270    0.04120    0.94625    1.000
    O46      O        0.31220    0.96320    0.90805    1.000
    C111     C        0.12320    0.95300    0.02110    1.000
    O47      O        0.23150    0.84650    0.91598    1.000
    O48      O        0.09840    0.81210    0.95301    1.000
    C112     C        0.17370    0.90280    0.97079    1.000
    C113     C        0.21980    0.95760    0.96877    1.000
    C114     C        0.06610    0.96940    0.05730    1.000
    N36      N        0.95740    0.93910    0.11219    1.000
    C115     C        0.17050    0.85110    0.94450    1.000
    C116     C        0.99610    0.04050    0.10240    1.000
    H45      H        0.98930    0.07920    0.11090    1.000
    C117     C        0.05430    0.02750    0.06910    1.000
    H46      H        0.08570    0.05770    0.05460    1.000
    C118     C        0.94870    0.99550    0.12270    1.000
    H47      H        0.90830    0.00450    0.14480    1.000
    C119     C        0.28790    0.98770    0.93860    1.000
    C120     C        0.01580    0.92650    0.08000    1.000
    H48      H        0.02270    0.88730    0.07260    1.000
    Zn13     Zn       0.99281    0.17487    0.99799    1.000
    N37      N        0.06250    0.26020    0.00069    1.000
    N38      N        0.13820    0.34950    0.00424    1.000
    O49      O        0.93730    0.20880    0.94625    1.000
    O50      O        0.93780    0.28680    0.90805    1.000
    C121     C        0.12680    0.29700    0.02110    1.000
    O51      O        0.01850    0.40350    0.91598    1.000
    O52      O        0.15160    0.43790    0.95301    1.000
    C122     C        0.07630    0.34720    0.97079    1.000
    C123     C        0.03020    0.29240    0.96877    1.000
    C124     C        0.18390    0.28060    0.05730    1.000
    N39      N        0.29260    0.31090    0.11219    1.000
    C125     C        0.07950    0.39890    0.94450    1.000
    C126     C        0.25390    0.20950    0.10240    1.000
    H49      H        0.26070    0.17080    0.11090    1.000
    C127     C        0.19570    0.22250    0.06910    1.000
    H50      H        0.16430    0.19230    0.05460    1.000
    C128     C        0.30130    0.25450    0.12270    1.000
    H51      H        0.34170    0.24550    0.14480    1.000
    C129     C        0.96210    0.26230    0.93860    1.000
    C130     C        0.23420    0.32350    0.08000    1.000
    H52      H        0.22730    0.36270    0.07260    1.000
    Zn14     Zn       0.99281    0.67487    0.49799    1.000
    N40      N        0.06250    0.76020    0.50069    1.000
    N41      N        0.13820    0.84950    0.50424    1.000
    O53      O        0.93730    0.70880    0.44625    1.000
    O54      O        0.93780    0.78680    0.40805    1.000
    C131     C        0.12680    0.79700    0.52110    1.000
    O55      O        0.01850    0.90350    0.41598    1.000
    O56      O        0.15160    0.93790    0.45301    1.000
    C132     C        0.07630    0.84720    0.47079    1.000
    C133     C        0.03020    0.79240    0.46877    1.000
    C134     C        0.18390    0.78060    0.55730    1.000
    N42      N        0.29260    0.81090    0.61219    1.000
    C135     C        0.07950    0.89890    0.44450    1.000
    C136     C        0.25390    0.70950    0.60240    1.000
    H53      H        0.26070    0.67080    0.61090    1.000
    C137     C        0.19570    0.72250    0.56910    1.000
    H54      H        0.16430    0.69230    0.55460    1.000
    C138     C        0.30130    0.75450    0.62270    1.000
    H55      H        0.34170    0.74550    0.64480    1.000
    C139     C        0.96210    0.76230    0.43860    1.000
    C140     C        0.23420    0.82350    0.58000    1.000
    H56      H        0.22730    0.86270    0.57260    1.000
    Zn15     Zn       0.49281    0.17487    0.49799    1.000
    N43      N        0.56250    0.26020    0.50069    1.000
    N44      N        0.63820    0.34950    0.50424    1.000
    O57      O        0.43730    0.20880    0.44625    1.000
    O58      O        0.43780    0.28680    0.40805    1.000
    C141     C        0.62680    0.29700    0.52110    1.000
    O59      O        0.51850    0.40350    0.41598    1.000
    O60      O        0.65160    0.43790    0.45301    1.000
    C142     C        0.57630    0.34720    0.47079    1.000
    C143     C        0.53020    0.29240    0.46877    1.000
    C144     C        0.68390    0.28060    0.55730    1.000
    N45      N        0.79260    0.31090    0.61219    1.000
    C145     C        0.57950    0.39890    0.44450    1.000
    C146     C        0.75390    0.20950    0.60240    1.000
    H57      H        0.76070    0.17080    0.61090    1.000
    C147     C        0.69570    0.22250    0.56910    1.000
    H58      H        0.66430    0.19230    0.55460    1.000
    C148     C        0.80130    0.25450    0.62270    1.000
    H59      H        0.84170    0.24550    0.64480    1.000
    C149     C        0.46210    0.26230    0.43860    1.000
    C150     C        0.73420    0.32350    0.58000    1.000
    H60      H        0.72730    0.36270    0.57260    1.000
    Zn16     Zn       0.49281    0.67487    0.99799    1.000
    N46      N        0.56250    0.76020    0.00069    1.000
    N47      N        0.63820    0.84950    0.00424    1.000
    O61      O        0.43730    0.70880    0.94625    1.000
    O62      O        0.43780    0.78680    0.90805    1.000
    C151     C        0.62680    0.79700    0.02110    1.000
    O63      O        0.51850    0.90350    0.91598    1.000
    O64      O        0.65160    0.93790    0.95301    1.000
    C152     C        0.57630    0.84720    0.97079    1.000
    C153     C        0.53020    0.79240    0.96877    1.000
    C154     C        0.68390    0.78060    0.05730    1.000
    N48      N        0.79260    0.81090    0.11219    1.000
    C155     C        0.57950    0.89890    0.94450    1.000
    C156     C        0.75390    0.70950    0.10240    1.000
    H61      H        0.76070    0.67080    0.11090    1.000
    C157     C        0.69570    0.72250    0.06910    1.000
    H62      H        0.66430    0.69230    0.05460    1.000
    C158     C        0.80130    0.75450    0.12270    1.000
    H63      H        0.84170    0.74550    0.14480    1.000
    C159     C        0.46210    0.76230    0.93860    1.000
    C160     C        0.73420    0.82350    0.08000    1.000
    H64      H        0.72730    0.86270    0.07260    1.000
    Zn17     Zn       0.00719    0.42487    0.24799    1.000
    N49      N        0.93750    0.51020    0.25069    1.000
    N50      N        0.86180    0.59950    0.25424    1.000
    O65      O        0.06270    0.45880    0.19625    1.000
    O66      O        0.06220    0.53680    0.15805    1.000
    C161     C        0.87320    0.54700    0.27110    1.000
    O67      O        0.98150    0.65350    0.16598    1.000
    O68      O        0.84840    0.68790    0.20301    1.000
    C162     C        0.92370    0.59720    0.22079    1.000
    C163     C        0.96980    0.54240    0.21877    1.000
    C164     C        0.81610    0.53060    0.30730    1.000
    N51      N        0.70740    0.56090    0.36219    1.000
    C165     C        0.92050    0.64890    0.19450    1.000
    C166     C        0.74610    0.45950    0.35240    1.000
    H65      H        0.73930    0.42080    0.36090    1.000
    C167     C        0.80430    0.47250    0.31910    1.000
    H66      H        0.83570    0.44230    0.30460    1.000
    C168     C        0.69870    0.50450    0.37270    1.000
    H67      H        0.65830    0.49550    0.39480    1.000
    C169     C        0.03790    0.51230    0.18860    1.000
    C170     C        0.76580    0.57350    0.33000    1.000
    H68      H        0.77270    0.61270    0.32260    1.000
    Zn18     Zn       0.00719    0.92487    0.74799    1.000
    N52      N        0.93750    0.01020    0.75069    1.000
    N53      N        0.86180    0.09950    0.75424    1.000
    O69      O        0.06270    0.95880    0.69625    1.000
    O70      O        0.06220    0.03680    0.65805    1.000
    C171     C        0.87320    0.04700    0.77110    1.000
    O71      O        0.98150    0.15350    0.66598    1.000
    O72      O        0.84840    0.18790    0.70301    1.000
    C172     C        0.92370    0.09720    0.72079    1.000
    C173     C        0.96980    0.04240    0.71877    1.000
    C174     C        0.81610    0.03060    0.80730    1.000
    N54      N        0.70740    0.06090    0.86219    1.000
    C175     C        0.92050    0.14890    0.69450    1.000
    C176     C        0.74610    0.95950    0.85240    1.000
    H69      H        0.73930    0.92080    0.86090    1.000
    C177     C        0.80430    0.97250    0.81910    1.000
    H70      H        0.83570    0.94230    0.80460    1.000
    C178     C        0.69870    0.00450    0.87270    1.000
    H71      H        0.65830    0.99550    0.89480    1.000
    C179     C        0.03790    0.01230    0.68860    1.000
    C180     C        0.76580    0.07350    0.83000    1.000
    H72      H        0.77270    0.11270    0.82260    1.000
    Zn19     Zn       0.50719    0.42487    0.74799    1.000
    N55      N        0.43750    0.51020    0.75069    1.000
    N56      N        0.36180    0.59950    0.75424    1.000
    O73      O        0.56270    0.45880    0.69625    1.000
    O74      O        0.56220    0.53680    0.65805    1.000
    C181     C        0.37320    0.54700    0.77110    1.000
    O75      O        0.48150    0.65350    0.66598    1.000
    O76      O        0.34840    0.68790    0.70301    1.000
    C182     C        0.42370    0.59720    0.72079    1.000
    C183     C        0.46980    0.54240    0.71877    1.000
    C184     C        0.31610    0.53060    0.80730    1.000
    N57      N        0.20740    0.56090    0.86219    1.000
    C185     C        0.42050    0.64890    0.69450    1.000
    C186     C        0.24610    0.45950    0.85240    1.000
    H73      H        0.23930    0.42080    0.86090    1.000
    C187     C        0.30430    0.47250    0.81910    1.000
    H74      H        0.33570    0.44230    0.80460    1.000
    C188     C        0.19870    0.50450    0.87270    1.000
    H75      H        0.15830    0.49550    0.89480    1.000
    C189     C        0.53790    0.51230    0.68860    1.000
    C190     C        0.26580    0.57350    0.83000    1.000
    H76      H        0.27270    0.61270    0.82260    1.000
    Zn20     Zn       0.50719    0.92487    0.24799    1.000
    N58      N        0.43750    0.01020    0.25069    1.000
    N59      N        0.36180    0.09950    0.25424    1.000
    O77      O        0.56270    0.95880    0.19625    1.000
    O78      O        0.56220    0.03680    0.15805    1.000
    C191     C        0.37320    0.04700    0.27110    1.000
    O79      O        0.48150    0.15350    0.16598    1.000
    O80      O        0.34840    0.18790    0.20301    1.000
    C192     C        0.42370    0.09720    0.22079    1.000
    C193     C        0.46980    0.04240    0.21877    1.000
    C194     C        0.31610    0.03060    0.30730    1.000
    N60      N        0.20740    0.06090    0.36219    1.000
    C195     C        0.42050    0.14890    0.19450    1.000
    C196     C        0.24610    0.95950    0.35240    1.000
    H77      H        0.23930    0.92080    0.36090    1.000
    C197     C        0.30430    0.97250    0.31910    1.000
    H78      H        0.33570    0.94230    0.30460    1.000
    C198     C        0.19870    0.00450    0.37270    1.000
    H79      H        0.15830    0.99550    0.39480    1.000
    C199     C        0.53790    0.01230    0.18860    1.000
    C200     C        0.26580    0.07350    0.33000    1.000
    H80      H        0.27270    0.11270    0.32260    1.000
    Zn21     Zn       0.24281    0.82513    0.24799    1.000
    N61      N        0.31250    0.73980    0.25069    1.000
    N62      N        0.38820    0.65050    0.25424    1.000
    O81      O        0.18730    0.79120    0.19625    1.000
    O82      O        0.18780    0.71320    0.15805    1.000
    C201     C        0.37680    0.70300    0.27110    1.000
    O83      O        0.26850    0.59650    0.16598    1.000
    O84      O        0.40160    0.56210    0.20301    1.000
    C202     C        0.32630    0.65280    0.22079    1.000
    C203     C        0.28020    0.70760    0.21877    1.000
    C204     C        0.43390    0.71940    0.30730    1.000
    N63      N        0.54260    0.68910    0.36219    1.000
    C205     C        0.32950    0.60110    0.19450    1.000
    C206     C        0.50390    0.79050    0.35240    1.000
    H81      H        0.51070    0.82920    0.36090    1.000
    C207     C        0.44570    0.77750    0.31910    1.000
    H82      H        0.41430    0.80770    0.30460    1.000
    C208     C        0.55130    0.74550    0.37270    1.000
    H83      H        0.59170    0.75450    0.39480    1.000
    C209     C        0.21210    0.73770    0.18860    1.000
    C210     C        0.48420    0.67650    0.33000    1.000
    H84      H        0.47730    0.63730    0.32260    1.000
    Zn22     Zn       0.24281    0.32513    0.74799    1.000
    N64      N        0.31250    0.23980    0.75069    1.000
    N65      N        0.38820    0.15050    0.75424    1.000
    O85      O        0.18730    0.29120    0.69625    1.000
    O86      O        0.18780    0.21320    0.65805    1.000
    C211     C        0.37680    0.20300    0.77110    1.000
    O87      O        0.26850    0.09650    0.66598    1.000
    O88      O        0.40160    0.06210    0.70301    1.000
    C212     C        0.32630    0.15280    0.72079    1.000
    C213     C        0.28020    0.20760    0.71877    1.000
    C214     C        0.43390    0.21940    0.80730    1.000
    N66      N        0.54260    0.18910    0.86219    1.000
    C215     C        0.32950    0.10110    0.69450    1.000
    C216     C        0.50390    0.29050    0.85240    1.000
    H85      H        0.51070    0.32920    0.86090    1.000
    C217     C        0.44570    0.27750    0.81910    1.000
    H86      H        0.41430    0.30770    0.80460    1.000
    C218     C        0.55130    0.24550    0.87270    1.000
    H87      H        0.59170    0.25450    0.89480    1.000
    C219     C        0.21210    0.23770    0.68860    1.000
    C220     C        0.48420    0.17650    0.83000    1.000
    H88      H        0.47730    0.13730    0.82260    1.000
    Zn23     Zn       0.74281    0.82513    0.74799    1.000
    N67      N        0.81250    0.73980    0.75069    1.000
    N68      N        0.88820    0.65050    0.75424    1.000
    O89      O        0.68730    0.79120    0.69625    1.000
    O90      O        0.68780    0.71320    0.65805    1.000
    C221     C        0.87680    0.70300    0.77110    1.000
    O91      O        0.76850    0.59650    0.66598    1.000
    O92      O        0.90160    0.56210    0.70301    1.000
    C222     C        0.82630    0.65280    0.72079    1.000
    C223     C        0.78020    0.70760    0.71877    1.000
    C224     C        0.93390    0.71940    0.80730    1.000
    N69      N        0.04260    0.68910    0.86219    1.000
    C225     C        0.82950    0.60110    0.69450    1.000
    C226     C        0.00390    0.79050    0.85240    1.000
    H89      H        0.01070    0.82920    0.86090    1.000
    C227     C        0.94570    0.77750    0.81910    1.000
    H90      H        0.91430    0.80770    0.80460    1.000
    C228     C        0.05130    0.74550    0.87270    1.000
    H91      H        0.09170    0.75450    0.89480    1.000
    C229     C        0.71210    0.73770    0.68860    1.000
    C230     C        0.98420    0.67650    0.83000    1.000
    H92      H        0.97730    0.63730    0.82260    1.000
    Zn24     Zn       0.74281    0.32513    0.24799    1.000
    N70      N        0.81250    0.23980    0.25069    1.000
    N71      N        0.88820    0.15050    0.25424    1.000
    O93      O        0.68730    0.29120    0.19625    1.000
    O94      O        0.68780    0.21320    0.15805    1.000
    C231     C        0.87680    0.20300    0.27110    1.000
    O95      O        0.76850    0.09650    0.16598    1.000
    O96      O        0.90160    0.06210    0.20301    1.000
    C232     C        0.82630    0.15280    0.22079    1.000
    C233     C        0.78020    0.20760    0.21877    1.000
    C234     C        0.93390    0.21940    0.30730    1.000
    N72      N        0.04260    0.18910    0.36219    1.000
    C235     C        0.82950    0.10110    0.19450    1.000
    C236     C        0.00390    0.29050    0.35240    1.000
    H93      H        0.01070    0.32920    0.36090    1.000
    C237     C        0.94570    0.27750    0.31910    1.000
    H94      H        0.91430    0.30770    0.30460    1.000
    C238     C        0.05130    0.24550    0.37270    1.000
    H95      H        0.09170    0.25450    0.39480    1.000
    C239     C        0.71210    0.23770    0.18860    1.000
    C240     C        0.98420    0.17650    0.33000    1.000
    H96      H        0.97730    0.13730    0.32260    1.000
    Zn25     Zn       0.24281    0.42487    0.00201    1.000
    N73      N        0.31250    0.51020    0.99931    1.000
    N74      N        0.38820    0.59950    0.99576    1.000
    O97      O        0.18730    0.45880    0.05375    1.000
    O98      O        0.18780    0.53680    0.09195    1.000
    C241     C        0.37680    0.54700    0.97890    1.000
    O99      O        0.26850    0.65350    0.08402    1.000
    O100     O        0.40160    0.68790    0.04699    1.000
    C242     C        0.32630    0.59720    0.02921    1.000
    C243     C        0.28020    0.54240    0.03123    1.000
    C244     C        0.43390    0.53060    0.94270    1.000
    N75      N        0.54260    0.56090    0.88781    1.000
    C245     C        0.32950    0.64890    0.05550    1.000
    C246     C        0.50390    0.45950    0.89760    1.000
    H97      H        0.51070    0.42080    0.88910    1.000
    C247     C        0.44570    0.47250    0.93090    1.000
    H98      H        0.41430    0.44230    0.94540    1.000
    C248     C        0.55130    0.50450    0.87730    1.000
    H99      H        0.59170    0.49550    0.85520    1.000
    C249     C        0.21210    0.51230    0.06140    1.000
    C250     C        0.48420    0.57350    0.92000    1.000
    H100     H        0.47730    0.61270    0.92740    1.000
    Zn26     Zn       0.24281    0.92487    0.50201    1.000
    N76      N        0.31250    0.01020    0.49931    1.000
    N77      N        0.38820    0.09950    0.49576    1.000
    O101     O        0.18730    0.95880    0.55375    1.000
    O102     O        0.18780    0.03680    0.59195    1.000
    C251     C        0.37680    0.04700    0.47890    1.000
    O103     O        0.26850    0.15350    0.58402    1.000
    O104     O        0.40160    0.18790    0.54699    1.000
    C252     C        0.32630    0.09720    0.52921    1.000
    C253     C        0.28020    0.04240    0.53123    1.000
    C254     C        0.43390    0.03060    0.44270    1.000
    N78      N        0.54260    0.06090    0.38781    1.000
    C255     C        0.32950    0.14890    0.55550    1.000
    C256     C        0.50390    0.95950    0.39760    1.000
    H101     H        0.51070    0.92080    0.38910    1.000
    C257     C        0.44570    0.97250    0.43090    1.000
    H102     H        0.41430    0.94230    0.44540    1.000
    C258     C        0.55130    0.00450    0.37730    1.000
    H103     H        0.59170    0.99550    0.35520    1.000
    C259     C        0.21210    0.01230    0.56140    1.000
    C260     C        0.48420    0.07350    0.42000    1.000
    H104     H        0.47730    0.11270    0.42740    1.000
    Zn27     Zn       0.74281    0.42487    0.50201    1.000
    N79      N        0.81250    0.51020    0.49931    1.000
    N80      N        0.88820    0.59950    0.49576    1.000
    O105     O        0.68730    0.45880    0.55375    1.000
    O106     O        0.68780    0.53680    0.59195    1.000
    C261     C        0.87680    0.54700    0.47890    1.000
    O107     O        0.76850    0.65350    0.58402    1.000
    O108     O        0.90160    0.68790    0.54699    1.000
    C262     C        0.82630    0.59720    0.52921    1.000
    C263     C        0.78020    0.54240    0.53123    1.000
    C264     C        0.93390    0.53060    0.44270    1.000
    N81      N        0.04260    0.56090    0.38781    1.000
    C265     C        0.82950    0.64890    0.55550    1.000
    C266     C        0.00390    0.45950    0.39760    1.000
    H105     H        0.01070    0.42080    0.38910    1.000
    C267     C        0.94570    0.47250    0.43090    1.000
    H106     H        0.91430    0.44230    0.44540    1.000
    C268     C        0.05130    0.50450    0.37730    1.000
    H107     H        0.09170    0.49550    0.35520    1.000
    C269     C        0.71210    0.51230    0.56140    1.000
    C270     C        0.98420    0.57350    0.42000    1.000
    H108     H        0.97730    0.61270    0.42740    1.000
    Zn28     Zn       0.74281    0.92487    0.00201    1.000
    N82      N        0.81250    0.01020    0.99931    1.000
    N83      N        0.88820    0.09950    0.99576    1.000
    O109     O        0.68730    0.95880    0.05375    1.000
    O110     O        0.68780    0.03680    0.09195    1.000
    C271     C        0.87680    0.04700    0.97890    1.000
    O111     O        0.76850    0.15350    0.08402    1.000
    O112     O        0.90160    0.18790    0.04699    1.000
    C272     C        0.82630    0.09720    0.02921    1.000
    C273     C        0.78020    0.04240    0.03123    1.000
    C274     C        0.93390    0.03060    0.94270    1.000
    N84      N        0.04260    0.06090    0.88781    1.000
    C275     C        0.82950    0.14890    0.05550    1.000
    C276     C        0.00390    0.95950    0.89760    1.000
    H109     H        0.01070    0.92080    0.88910    1.000
    C277     C        0.94570    0.97250    0.93090    1.000
    H110     H        0.91430    0.94230    0.94540    1.000
    C278     C        0.05130    0.00450    0.87730    1.000
    H111     H        0.09170    0.99550    0.85520    1.000
    C279     C        0.71210    0.01230    0.06140    1.000
    C280     C        0.98420    0.07350    0.92000    1.000
    H112     H        0.97730    0.11270    0.92740    1.000
    Zn29     Zn       0.00719    0.82513    0.00201    1.000
    N85      N        0.93750    0.73980    0.99931    1.000
    N86      N        0.86180    0.65050    0.99576    1.000
    O113     O        0.06270    0.79120    0.05375    1.000
    O114     O        0.06220    0.71320    0.09195    1.000
    C281     C        0.87320    0.70300    0.97890    1.000
    O115     O        0.98150    0.59650    0.08402    1.000
    O116     O        0.84840    0.56210    0.04699    1.000
    C282     C        0.92370    0.65280    0.02921    1.000
    C283     C        0.96980    0.70760    0.03123    1.000
    C284     C        0.81610    0.71940    0.94270    1.000
    N87      N        0.70740    0.68910    0.88781    1.000
    C285     C        0.92050    0.60110    0.05550    1.000
    C286     C        0.74610    0.79050    0.89760    1.000
    H113     H        0.73930    0.82920    0.88910    1.000
    C287     C        0.80430    0.77750    0.93090    1.000
    H114     H        0.83570    0.80770    0.94540    1.000
    C288     C        0.69870    0.74550    0.87730    1.000
    H115     H        0.65830    0.75450    0.85520    1.000
    C289     C        0.03790    0.73770    0.06140    1.000
    C290     C        0.76580    0.67650    0.92000    1.000
    H116     H        0.77270    0.63730    0.92740    1.000
    Zn30     Zn       0.00719    0.32513    0.50201    1.000
    N88      N        0.93750    0.23980    0.49931    1.000
    N89      N        0.86180    0.15050    0.49576    1.000
    O117     O        0.06270    0.29120    0.55375    1.000
    O118     O        0.06220    0.21320    0.59195    1.000
    C291     C        0.87320    0.20300    0.47890    1.000
    O119     O        0.98150    0.09650    0.58402    1.000
    O120     O        0.84840    0.06210    0.54699    1.000
    C292     C        0.92370    0.15280    0.52921    1.000
    C293     C        0.96980    0.20760    0.53123    1.000
    C294     C        0.81610    0.21940    0.44270    1.000
    N90      N        0.70740    0.18910    0.38781    1.000
    C295     C        0.92050    0.10110    0.55550    1.000
    C296     C        0.74610    0.29050    0.39760    1.000
    H117     H        0.73930    0.32920    0.38910    1.000
    C297     C        0.80430    0.27750    0.43090    1.000
    H118     H        0.83570    0.30770    0.44540    1.000
    C298     C        0.69870    0.24550    0.37730    1.000
    H119     H        0.65830    0.25450    0.35520    1.000
    C299     C        0.03790    0.23770    0.56140    1.000
    C300     C        0.76580    0.17650    0.42000    1.000
    H120     H        0.77270    0.13730    0.42740    1.000
    Zn31     Zn       0.50719    0.82513    0.50201    1.000
    N91      N        0.43750    0.73980    0.49931    1.000
    N92      N        0.36180    0.65050    0.49576    1.000
    O121     O        0.56270    0.79120    0.55375    1.000
    O122     O        0.56220    0.71320    0.59195    1.000
    C301     C        0.37320    0.70300    0.47890    1.000
    O123     O        0.48150    0.59650    0.58402    1.000
    O124     O        0.34840    0.56210    0.54699    1.000
    C302     C        0.42370    0.65280    0.52921    1.000
    C303     C        0.46980    0.70760    0.53123    1.000
    C304     C        0.31610    0.71940    0.44270    1.000
    N93      N        0.20740    0.68910    0.38781    1.000
    C305     C        0.42050    0.60110    0.55550    1.000
    C306     C        0.24610    0.79050    0.39760    1.000
    H121     H        0.23930    0.82920    0.38910    1.000
    C307     C        0.30430    0.77750    0.43090    1.000
    H122     H        0.33570    0.80770    0.44540    1.000
    C308     C        0.19870    0.74550    0.37730    1.000
    H123     H        0.15830    0.75450    0.35520    1.000
    C309     C        0.53790    0.73770    0.56140    1.000
    C310     C        0.26580    0.67650    0.42000    1.000
    H124     H        0.27270    0.63730    0.42740    1.000
    Zn32     Zn       0.50719    0.32513    0.00201    1.000
    N94      N        0.43750    0.23980    0.99931    1.000
    N95      N        0.36180    0.15050    0.99576    1.000
    O125     O        0.56270    0.29120    0.05375    1.000
    O126     O        0.56220    0.21320    0.09195    1.000
    C311     C        0.37320    0.20300    0.97890    1.000
    O127     O        0.48150    0.09650    0.08402    1.000
    O128     O        0.34840    0.06210    0.04699    1.000
    C312     C        0.42370    0.15280    0.02921    1.000
    C313     C        0.46980    0.20760    0.03123    1.000
    C314     C        0.31610    0.21940    0.94270    1.000
    N96      N        0.20740    0.18910    0.88781    1.000
    C315     C        0.42050    0.10110    0.05550    1.000
    C316     C        0.24610    0.29050    0.89760    1.000
    H125     H        0.23930    0.32920    0.88910    1.000
    C317     C        0.30430    0.27750    0.93090    1.000
    H126     H        0.33570    0.30770    0.94540    1.000
    C318     C        0.19870    0.24550    0.87730    1.000
    H127     H        0.15830    0.25450    0.85520    1.000
    C319     C        0.53790    0.23770    0.06140    1.000
    C320     C        0.26580    0.17650    0.92000    1.000
    H128     H        0.27270    0.13730    0.92740    1.000
    Tb1      Tb       0.87500    0.37500    0.87500    1.000
    Tb2      Tb       0.87500    0.87500    0.37500    1.000
    Tb3      Tb       0.37500    0.37500    0.37500    1.000
    Tb4      Tb       0.37500    0.87500    0.87500    1.000
    Tb5      Tb       0.12500    0.62500    0.12500    1.000
    Tb6      Tb       0.12500    0.12500    0.62500    1.000
    Tb7      Tb       0.62500    0.62500    0.62500    1.000
    Tb8      Tb       0.62500    0.12500    0.12500    1.000
    Zn33     Zn       0.37500    0.37500    0.60632    1.000
    Zn34     Zn       0.37500    0.87500    0.10632    1.000
    Zn35     Zn       0.87500    0.37500    0.10632    1.000
    Zn36     Zn       0.87500    0.87500    0.60632    1.000
    Zn37     Zn       0.37500    0.37500    0.14368    1.000
    Zn38     Zn       0.37500    0.87500    0.64368    1.000
    Zn39     Zn       0.87500    0.37500    0.64368    1.000
    Zn40     Zn       0.87500    0.87500    0.14368    1.000
    Zn41     Zn       0.62500    0.62500    0.39368    1.000
    Zn42     Zn       0.62500    0.12500    0.89368    1.000
    Zn43     Zn       0.12500    0.62500    0.89368    1.000
    Zn44     Zn       0.12500    0.12500    0.39368    1.000
    Zn45     Zn       0.62500    0.62500    0.85632    1.000
    Zn46     Zn       0.62500    0.12500    0.35632    1.000
    Zn47     Zn       0.12500    0.62500    0.35632    1.000
    Zn48     Zn       0.12500    0.12500    0.85632    1.000
    Cl1      Cl       0.12500    0.62500    0.75290    1.000
    Cl2      Cl       0.12500    0.12500    0.25290    1.000
    Cl3      Cl       0.62500    0.12500    0.75290    1.000
    Cl4      Cl       0.62500    0.62500    0.25290    1.000
    Cl5      Cl       0.62500    0.62500    0.99710    1.000
    Cl6      Cl       0.62500    0.12500    0.49710    1.000
    Cl7      Cl       0.12500    0.12500    0.99710    1.000
    Cl8      Cl       0.12500    0.62500    0.49710    1.000
    Cl9      Cl       0.87500    0.37500    0.24710    1.000
    Cl10     Cl       0.87500    0.87500    0.74710    1.000
    Cl11     Cl       0.37500    0.87500    0.24710    1.000
    Cl12     Cl       0.37500    0.37500    0.74710    1.000
    Cl13     Cl       0.37500    0.37500    0.00290    1.000
    Cl14     Cl       0.37500    0.87500    0.50290    1.000
    Cl15     Cl       0.87500    0.87500    0.00290    1.000
    Cl16     Cl       0.87500    0.37500    0.50290    1.000
