# CIF file generated by openbabel 3.1.0, see https://openbabel.org
data_I
_chemical_name_common 'ECOSIY_clean'
_cell_length_a 8.303
_cell_length_b 8.303
_cell_length_c 20.334
_cell_angle_alpha 90
_cell_angle_beta 90
_cell_angle_gamma 120
_space_group_name_H-M_alt 'P 1'
_space_group_name_Hall 'P 1'
loop_
    _symmetry_equiv_pos_as_xyz
    x,y,z
loop_
    _atom_site_label
    _atom_site_type_symbol
    _atom_site_fract_x
    _atom_site_fract_y
    _atom_site_fract_z
    _atom_site_occupancy
    Co1      Co       0.42224    0.28532    0.00066    1.000
    Co2      Co       0.86308    0.57776    0.00066    1.000
    Co3      Co       0.71468    0.13692    0.00066    1.000
    Co4      Co       0.13692    0.71468    0.49934    1.000
    Co5      Co       0.28532    0.42224    0.49934    1.000
    Co6      Co       0.57776    0.86308    0.49934    1.000
    Co7      Co       0.57776    0.71468    0.99934    1.000
    Co8      Co       0.13692    0.42224    0.99934    1.000
    Co9      Co       0.28532    0.86308    0.99934    1.000
    Co10     Co       0.86308    0.28532    0.50066    1.000
    Co11     Co       0.71468    0.57776    0.50066    1.000
    Co12     Co       0.42224    0.13692    0.50066    1.000
    Co13     Co       0.00000    0.00000    0.08472    1.000
    Co14     Co       0.00000    0.00000    0.41528    1.000
    Co15     Co       0.00000    0.00000    0.91528    1.000
    Co16     Co       0.00000    0.00000    0.58472    1.000
    H1       H        0.30500    0.08500    0.09000    1.000
    H2       H        0.47730    0.10280    0.90340    1.000
    H3       H        0.15110    0.87350    0.20660    1.000
    H4       H        0.94250    0.73040    0.18990    1.000
    H5       H        0.78000    0.69500    0.09000    1.000
    H6       H        0.62550    0.52270    0.90340    1.000
    H7       H        0.72240    0.84890    0.20660    1.000
    H8       H        0.78790    0.05750    0.18990    1.000
    H9       H        0.91500    0.22000    0.09000    1.000
    H10      H        0.89720    0.37450    0.90340    1.000
    H11      H        0.12650    0.27760    0.20660    1.000
    H12      H        0.26960    0.21210    0.18990    1.000
    H13      H        0.22000    0.91500    0.41000    1.000
    H14      H        0.37450    0.89720    0.59660    1.000
    H15      H        0.27760    0.12650    0.29340    1.000
    H16      H        0.21210    0.26960    0.31010    1.000
    H17      H        0.08500    0.30500    0.41000    1.000
    H18      H        0.10280    0.47730    0.59660    1.000
    H19      H        0.87350    0.15110    0.29340    1.000
    H20      H        0.73040    0.94250    0.31010    1.000
    H21      H        0.69500    0.78000    0.41000    1.000
    H22      H        0.52270    0.62550    0.59660    1.000
    H23      H        0.84890    0.72240    0.29340    1.000
    H24      H        0.05750    0.78790    0.31010    1.000
    H25      H        0.69500    0.91500    0.91000    1.000
    H26      H        0.52270    0.89720    0.09660    1.000
    H27      H        0.84890    0.12650    0.79340    1.000
    H28      H        0.05750    0.26960    0.81010    1.000
    H29      H        0.22000    0.30500    0.91000    1.000
    H30      H        0.37450    0.47730    0.09660    1.000
    H31      H        0.27760    0.15110    0.79340    1.000
    H32      H        0.21210    0.94250    0.81010    1.000
    H33      H        0.08500    0.78000    0.91000    1.000
    H34      H        0.10280    0.62550    0.09660    1.000
    H35      H        0.87350    0.72240    0.79340    1.000
    H36      H        0.73040    0.78790    0.81010    1.000
    H37      H        0.78000    0.08500    0.59000    1.000
    H38      H        0.62550    0.10280    0.40340    1.000
    H39      H        0.72240    0.87350    0.70660    1.000
    H40      H        0.78790    0.73040    0.68990    1.000
    H41      H        0.91500    0.69500    0.59000    1.000
    H42      H        0.89720    0.52270    0.40340    1.000
    H43      H        0.12650    0.84890    0.70660    1.000
    H44      H        0.26960    0.05750    0.68990    1.000
    H45      H        0.30500    0.22000    0.59000    1.000
    H46      H        0.47730    0.37450    0.40340    1.000
    H47      H        0.15110    0.27760    0.70660    1.000
    H48      H        0.94250    0.21210    0.68990    1.000
    C1       C        0.02380    0.84530    0.21290    1.000
    C2       C        0.82150    0.97620    0.21290    1.000
    C3       C        0.15470    0.17850    0.21290    1.000
    C4       C        0.17850    0.15470    0.28710    1.000
    C5       C        0.84530    0.02380    0.28710    1.000
    C6       C        0.97620    0.82150    0.28710    1.000
    C7       C        0.97620    0.15470    0.78710    1.000
    C8       C        0.17850    0.02380    0.78710    1.000
    C9       C        0.84530    0.82150    0.78710    1.000
    C10      C        0.82150    0.84530    0.71290    1.000
    C11      C        0.15470    0.97620    0.71290    1.000
    C12      C        0.02380    0.17850    0.71290    1.000
    N1       N        0.00000    0.00000    0.18550    1.000
    N2       N        0.00000    0.00000    0.31450    1.000
    N3       N        0.00000    0.00000    0.81450    1.000
    N4       N        0.00000    0.00000    0.68550    1.000
    O1       O        0.24990    0.05350    0.05950    1.000
    O2       O        0.47710    0.10160    0.95262    1.000
    O3       O        0.80360    0.75010    0.05950    1.000
    O4       O        0.62450    0.52290    0.95262    1.000
    O5       O        0.94650    0.19640    0.05950    1.000
    O6       O        0.89840    0.37550    0.95262    1.000
    O7       O        0.19640    0.94650    0.44050    1.000
    O8       O        0.37550    0.89840    0.54738    1.000
    O9       O        0.05350    0.24990    0.44050    1.000
    O10      O        0.10160    0.47710    0.54738    1.000
    O11      O        0.75010    0.80360    0.44050    1.000
    O12      O        0.52290    0.62450    0.54738    1.000
    O13      O        0.75010    0.94650    0.94050    1.000
    O14      O        0.52290    0.89840    0.04738    1.000
    O15      O        0.19640    0.24990    0.94050    1.000
    O16      O        0.37550    0.47710    0.04738    1.000
    O17      O        0.05350    0.80360    0.94050    1.000
    O18      O        0.10160    0.62450    0.04738    1.000
    O19      O        0.80360    0.05350    0.55950    1.000
    O20      O        0.62450    0.10160    0.45262    1.000
    O21      O        0.94650    0.75010    0.55950    1.000
    O22      O        0.89840    0.52290    0.45262    1.000
    O23      O        0.24990    0.19640    0.55950    1.000
    O24      O        0.47710    0.37550    0.45262    1.000
