# CIF file generated by openbabel 3.1.0, see https://openbabel.org
data_I
_chemical_name_common 'image0'
_cell_length_a 14.3049
_cell_length_b 10.1537
_cell_length_c 18.3128
_cell_angle_alpha 90
_cell_angle_beta 90.107
_cell_angle_gamma 90
_space_group_name_H-M_alt 'P 1'
_space_group_name_Hall 'P 1'
loop_
    _symmetry_equiv_pos_as_xyz
    x,y,z
loop_
    _atom_site_label
    _atom_site_type_symbol
    _atom_site_fract_x
    _atom_site_fract_y
    _atom_site_fract_z
    _atom_site_occupancy
    V1       V        0.28821    0.20040    0.19680    1.000
    V2       V        0.24235    0.68450    0.10383    1.000
    V3       V        0.25322    0.84789    0.80339    1.000
    V4       V        0.25326    0.36237    0.89246    1.000
    P1       P        0.34595    0.63699    0.69779    1.000
    P2       P        0.18414    0.64285    0.93046    1.000
    P3       P        0.33320    0.42923    0.31365    1.000
    P4       P        0.19833    0.38912    0.06685    1.000
    O1       O        0.19700    0.71240    0.00388    1.000
    O2       O        0.42980    0.48740    0.29480    1.000
    O3       O        0.44440    0.67430    0.72460    1.000
    O4       O        0.28730    0.37140    0.24552    1.000
    O5       O        0.09610    0.55870    0.92851    1.000
    O6       O        0.21800    0.32600    0.99354    1.000
    O7       O        0.32590    0.70880    0.62652    1.000
    O8       O        0.09810    0.44400    0.07087    1.000
    O9       O        0.20650    0.28400    0.12597    1.000
    O10      O        0.27460    0.67680    0.75658    1.000
    O11      O        0.17250    0.74860    0.87146    1.000
    O12      O        0.28170    0.92570    0.70617    1.000
    O13      O        0.27230    0.54020    0.34112    1.000
    O14      O        0.26800    0.50050    0.08161    1.000
    O15      O        0.28380    0.11890    0.29521    1.000
    O16      O        0.34660    0.32540    0.37284    1.000
    O17      O        0.34090    0.48840    0.68434    1.000
    O18      O        0.26800    0.55390    0.91424    1.000
    V5       V        0.21179    0.70040    0.30320    1.000
    V6       V        0.25765    0.18450    0.39617    1.000
    V7       V        0.24678    0.34789    0.69661    1.000
    V8       V        0.24674    0.86237    0.60754    1.000
    P5       P        0.15405    0.13699    0.80221    1.000
    P6       P        0.31586    0.14285    0.56954    1.000
    P7       P        0.16680    0.92923    0.18635    1.000
    P8       P        0.30167    0.88912    0.43315    1.000
    O19      O        0.30300    0.21240    0.49612    1.000
    O20      O        0.07020    0.98740    0.20520    1.000
    O21      O        0.05560    0.17430    0.77540    1.000
    O22      O        0.21270    0.87140    0.25448    1.000
    O23      O        0.40390    0.05870    0.57149    1.000
    O24      O        0.28200    0.82600    0.50646    1.000
    O25      O        0.17410    0.20880    0.87348    1.000
    O26      O        0.40190    0.94400    0.42913    1.000
    O27      O        0.29350    0.78400    0.37403    1.000
    O28      O        0.22540    0.17680    0.74342    1.000
    O29      O        0.32750    0.24860    0.62854    1.000
    O30      O        0.21830    0.42570    0.79383    1.000
    O31      O        0.22770    0.04020    0.15888    1.000
    O32      O        0.23200    0.00050    0.41839    1.000
    O33      O        0.21620    0.61890    0.20479    1.000
    O34      O        0.15340    0.82540    0.12716    1.000
    O35      O        0.15910    0.98840    0.81566    1.000
    O36      O        0.23200    0.05390    0.58576    1.000
    V9       V        0.71179    0.79960    0.80320    1.000
    V10      V        0.75765    0.31550    0.89617    1.000
    V11      V        0.74678    0.15211    0.19661    1.000
    V12      V        0.74674    0.63763    0.10754    1.000
    P9       P        0.65405    0.36301    0.30221    1.000
    P10      P        0.81586    0.35715    0.06954    1.000
    P11      P        0.66680    0.57077    0.68635    1.000
    P12      P        0.80167    0.61088    0.93315    1.000
    O37      O        0.80300    0.28760    0.99612    1.000
    O38      O        0.57020    0.51260    0.70520    1.000
    O39      O        0.55560    0.32570    0.27540    1.000
    O40      O        0.71270    0.62860    0.75448    1.000
    O41      O        0.90390    0.44130    0.07149    1.000
    O42      O        0.78200    0.67400    0.00646    1.000
    O43      O        0.67410    0.29120    0.37348    1.000
    O44      O        0.90190    0.55600    0.92913    1.000
    O45      O        0.79350    0.71600    0.87403    1.000
    O46      O        0.72540    0.32320    0.24342    1.000
    O47      O        0.82750    0.25140    0.12854    1.000
    O48      O        0.71830    0.07430    0.29383    1.000
    O49      O        0.72770    0.45980    0.65888    1.000
    O50      O        0.73200    0.49950    0.91839    1.000
    O51      O        0.71620    0.88110    0.70479    1.000
    O52      O        0.65340    0.67460    0.62716    1.000
    O53      O        0.65910    0.51160    0.31566    1.000
    O54      O        0.73200    0.44610    0.08576    1.000
    V13      V        0.78821    0.29960    0.69680    1.000
    V14      V        0.74235    0.81550    0.60383    1.000
    V15      V        0.75322    0.65211    0.30339    1.000
    V16      V        0.75326    0.13763    0.39246    1.000
    P13      P        0.84595    0.86301    0.19779    1.000
    P14      P        0.68414    0.85715    0.43046    1.000
    P15      P        0.83320    0.07077    0.81365    1.000
    P16      P        0.69833    0.11088    0.56685    1.000
    O55      O        0.69700    0.78760    0.50388    1.000
    O56      O        0.92980    0.01260    0.79480    1.000
    O57      O        0.94440    0.82570    0.22460    1.000
    O58      O        0.78730    0.12860    0.74552    1.000
    O59      O        0.59610    0.94130    0.42851    1.000
    O60      O        0.71800    0.17400    0.49354    1.000
    O61      O        0.82590    0.79120    0.12652    1.000
    O62      O        0.59810    0.05600    0.57087    1.000
    O63      O        0.70650    0.21600    0.62597    1.000
    O64      O        0.77460    0.82320    0.25658    1.000
    O65      O        0.67250    0.75140    0.37146    1.000
    O66      O        0.78170    0.57430    0.20617    1.000
    O67      O        0.77230    0.95980    0.84112    1.000
    O68      O        0.76800    0.99950    0.58161    1.000
    O69      O        0.78380    0.38110    0.79521    1.000
    O70      O        0.84660    0.17460    0.87284    1.000
    O71      O        0.84090    0.01160    0.18434    1.000
    O72      O        0.76800    0.94610    0.41424    1.000
    V17      V        0.00000    0.50000    0.00000    1.000
    V18      V        0.50000    0.00000    0.50000    1.000
