# CIF file generated by openbabel 3.1.0, see https://openbabel.org
data_I
_chemical_name_common 'image0'
_cell_length_a 16.706
_cell_length_b 3.5265
_cell_length_c 11.558
_cell_angle_alpha 90
_cell_angle_beta 100.77
_cell_angle_gamma 90
_space_group_name_H-M_alt 'P 1'
_space_group_name_Hall 'P 1'
loop_
    _symmetry_equiv_pos_as_xyz
    x,y,z
loop_
    _atom_site_label
    _atom_site_type_symbol
    _atom_site_fract_x
    _atom_site_fract_y
    _atom_site_fract_z
    _atom_site_occupancy
    C1       C        0.93070    0.60790    0.73680    1.000
    H1       H        0.88390    0.68150    0.68470    1.000
    C2       C        0.92920    0.61520    0.85510    1.000
    H2       H        0.88260    0.69470    0.88120    1.000
    C3       C        0.06740    0.58300    0.88910    1.000
    H3       H        0.11650    0.36210    0.93870    1.000
    C4       C        0.06380    0.58770    0.77240    1.000
    H4       H        0.11070    0.34490    0.74490    1.000
    C5       C        0.43070    0.10790    0.73680    1.000
    H5       H        0.38390    0.18150    0.68470    1.000
    C6       C        0.42920    0.11520    0.85510    1.000
    H6       H        0.38260    0.19470    0.88120    1.000
    C7       C        0.56740    0.08300    0.88910    1.000
    H7       H        0.61650    0.86210    0.93870    1.000
    C8       C        0.56380    0.08770    0.77240    1.000
    H8       H        0.61070    0.84490    0.74490    1.000
    C9       C        0.06930    0.60790    0.26320    1.000
    H9       H        0.11610    0.68150    0.31530    1.000
    C10      C        0.07080    0.61520    0.14490    1.000
    H10      H        0.11740    0.69470    0.11880    1.000
    C11      C        0.93260    0.58300    0.11090    1.000
    H11      H        0.88350    0.36210    0.06130    1.000
    C12      C        0.93620    0.58770    0.22760    1.000
    H12      H        0.88930    0.34490    0.25510    1.000
    C13      C        0.56930    0.10790    0.26320    1.000
    H13      H        0.61610    0.18150    0.31530    1.000
    C14      C        0.57080    0.11520    0.14490    1.000
    H14      H        0.61740    0.19470    0.11880    1.000
    C15      C        0.43260    0.08300    0.11090    1.000
    H15      H        0.38350    0.86210    0.06130    1.000
    C16      C        0.43620    0.08770    0.22760    1.000
    H16      H        0.38930    0.84490    0.25510    1.000
    C17      C        0.06930    0.39210    0.26320    1.000
    H17      H        0.11610    0.31850    0.31530    1.000
    C18      C        0.07080    0.38480    0.14490    1.000
    H18      H        0.11740    0.30530    0.11880    1.000
    C19      C        0.93260    0.41700    0.11090    1.000
    H19      H        0.88350    0.63790    0.06130    1.000
    C20      C        0.93620    0.41230    0.22760    1.000
    H20      H        0.88930    0.65510    0.25510    1.000
    C21      C        0.56930    0.89210    0.26320    1.000
    H21      H        0.61610    0.81850    0.31530    1.000
    C22      C        0.57080    0.88480    0.14490    1.000
    H22      H        0.61740    0.80530    0.11880    1.000
    C23      C        0.43260    0.91700    0.11090    1.000
    H23      H        0.38350    0.13790    0.06130    1.000
    C24      C        0.43620    0.91230    0.22760    1.000
    H24      H        0.38930    0.15510    0.25510    1.000
    C25      C        0.93070    0.39210    0.73680    1.000
    H25      H        0.88390    0.31850    0.68470    1.000
    C26      C        0.92920    0.38480    0.85510    1.000
    H26      H        0.88260    0.30530    0.88120    1.000
    C27      C        0.06740    0.41700    0.88910    1.000
    H27      H        0.11650    0.63790    0.93870    1.000
    C28      C        0.06380    0.41230    0.77240    1.000
    H28      H        0.11070    0.65510    0.74490    1.000
    C29      C        0.43070    0.89210    0.73680    1.000
    H29      H        0.38390    0.81850    0.68470    1.000
    C30      C        0.42920    0.88480    0.85510    1.000
    H30      H        0.38260    0.80530    0.88120    1.000
    C31      C        0.56740    0.91700    0.88910    1.000
    H31      H        0.61650    0.13790    0.93870    1.000
    C32      C        0.56380    0.91230    0.77240    1.000
    H32      H        0.61070    0.15510    0.74490    1.000
    N1       N        0.99623    0.50000    0.69130    1.000
    C33      C        0.99954    0.50000    0.93790    1.000
    N2       N        0.49623    0.00000    0.69130    1.000
    C34      C        0.49954    0.00000    0.93790    1.000
    N3       N        0.00377    0.50000    0.30870    1.000
    C35      C        0.00046    0.50000    0.06210    1.000
    N4       N        0.50377    0.00000    0.30870    1.000
    C36      C        0.50046    0.00000    0.06210    1.000
    O1       O        0.08672    0.00000    0.52800    1.000
    V1       V        0.19109    0.00000    0.55887    1.000
    O2       O        0.58672    0.50000    0.52800    1.000
    V2       V        0.69109    0.50000    0.55887    1.000
    O3       O        0.91328    0.00000    0.47200    1.000
    V3       V        0.80891    0.00000    0.44113    1.000
    O4       O        0.41328    0.50000    0.47200    1.000
    V4       V        0.30891    0.50000    0.44113    1.000
    O5       O        0.20553    0.50000    0.51110    1.000
    O6       O        0.70553    0.00000    0.51110    1.000
    O7       O        0.79447    0.50000    0.48890    1.000
    O8       O        0.29447    0.00000    0.48890    1.000
    Mn1      Mn       0.00000    0.50000    0.50000    1.000
    Mn2      Mn       0.50000    0.00000    0.50000    1.000
