# CIF file generated by openbabel 3.1.0, see https://openbabel.org
data_I
_chemical_name_common 'image0'
_cell_length_a 5.4013
_cell_length_b 17.644
_cell_length_c 17.825
_cell_angle_alpha 89.391
_cell_angle_beta 85.708
_cell_angle_gamma 86.268
_space_group_name_H-M_alt 'P 1'
_space_group_name_Hall 'P 1'
loop_
    _symmetry_equiv_pos_as_xyz
    x,y,z
loop_
    _atom_site_label
    _atom_site_type_symbol
    _atom_site_fract_x
    _atom_site_fract_y
    _atom_site_fract_z
    _atom_site_occupancy
    O1       O        0.36440    0.56837    0.49813    1.000
    O2       O        0.05180    0.00408    0.40088    1.000
    O3       O        0.34680    0.06685    0.01364    1.000
    N1       N        0.29270    0.85370    0.46470    1.000
    O4       O        0.94730    0.09261    0.99202    1.000
    O5       O        0.14230    0.49723    0.93238    1.000
    O6       O        0.96110    0.59756    0.48751    1.000
    O7       O        0.64270    0.00281    0.43262    1.000
    C1       C        0.18660    0.19580    0.01600    1.000
    C2       C        0.22860    0.69700    0.47810    1.000
    N2       N        0.71420    0.02840    0.14790    1.000
    N3       N        0.21390    0.35280    0.03240    1.000
    N4       N        0.27170    0.47430    0.64870    1.000
    C3       C        0.56500    0.04580    0.27800    1.000
    H1       H        0.43360    0.06380    0.31300    1.000
    C4       C        0.43080    0.72870    0.50490    1.000
    H2       H        0.55430    0.69750    0.52780    1.000
    C5       C        0.17980    0.61440    0.48870    1.000
    C6       C        0.38280    0.30340    0.05790    1.000
    H3       H        0.51580    0.32240    0.08250    1.000
    C7       C        0.37650    0.22460    0.05080    1.000
    H4       H        0.50310    0.19150    0.06990    1.000
    O8       O        0.54970    0.50349    0.90494    1.000
    C8       C        0.83150    0.00510    0.38520    1.000
    C9       C        0.15520    0.11210    0.00740    1.000
    C10      C        0.33240    0.49900    0.88630    1.000
    C11      C        0.78260    0.01130    0.30280    1.000
    C12      C        0.10300    0.82190    0.43680    1.000
    H5       H        0.98820    0.85360    0.41090    1.000
    C13      C        0.45340    0.80680    0.49820    1.000
    H6       H        0.59110    0.82760    0.51880    1.000
    C14      C        0.06340    0.74550    0.44350    1.000
    H7       H        0.92100    0.72650    0.42390    1.000
    C15      C        0.29940    0.49320    0.80380    1.000
    C16      C        0.10610    0.45760    0.77590    1.000
    H8       H        0.97700    0.43950    0.80920    1.000
    C17      C        0.00650    0.24730    0.99040    1.000
    H9       H        0.86790    0.22980    0.96750    1.000
    C18      C        0.96070    0.98550    0.24930    1.000
    H10      H        0.11240    0.96160    0.26390    1.000
    C19      C        0.10180    0.44860    0.69920    1.000
    H11      H        0.96990    0.42240    0.68130    1.000
    C20      C        0.45170    0.51090    0.67680    1.000
    H12      H        0.57240    0.53160    0.64230    1.000
    C21      C        0.54260    0.05350    0.20100    1.000
    H13      H        0.39410    0.07840    0.18510    1.000
    C22      C        0.02950    0.32410    0.99850    1.000
    H14      H        0.90740    0.35840    0.97880    1.000
    Li1      Li       0.19890    0.47040    0.03750    1.000
    C23      C        0.47480    0.52090    0.75230    1.000
    H15      H        0.61000    0.54660    0.76870    1.000
    C24      C        0.92130    0.99400    0.17360    1.000
    H16      H        0.04780    0.97440    0.13780    1.000
    Li2      Li       0.29410    0.46550    0.53340    1.000
    Li3      Li       0.31060    0.97240    0.46130    1.000
    Li4      Li       0.30990    0.96390    0.96820    1.000
    O9       O        0.63560    0.43163    0.50187    1.000
    O10      O        0.94820    0.99592    0.59912    1.000
    O11      O        0.65320    0.93315    0.98636    1.000
    N5       N        0.70730    0.14630    0.53530    1.000
    O12      O        0.05270    0.90739    0.00798    1.000
    O13      O        0.85770    0.50277    0.06762    1.000
    O14      O        0.03890    0.40244    0.51249    1.000
    O15      O        0.35730    0.99719    0.56738    1.000
    C25      C        0.81340    0.80420    0.98400    1.000
    C26      C        0.77140    0.30300    0.52190    1.000
    N6       N        0.28580    0.97160    0.85210    1.000
    N7       N        0.78610    0.64720    0.96760    1.000
    N8       N        0.72830    0.52570    0.35130    1.000
    C27      C        0.43500    0.95420    0.72200    1.000
    H17      H        0.56640    0.93620    0.68700    1.000
    C28      C        0.56920    0.27130    0.49510    1.000
    H18      H        0.44570    0.30250    0.47220    1.000
    C29      C        0.82020    0.38560    0.51130    1.000
    C30      C        0.61720    0.69660    0.94210    1.000
    H19      H        0.48420    0.67760    0.91750    1.000
    C31      C        0.62350    0.77540    0.94920    1.000
    H20      H        0.49690    0.80850    0.93010    1.000
    O16      O        0.45030    0.49651    0.09506    1.000
    C32      C        0.16850    0.99490    0.61480    1.000
    C33      C        0.84480    0.88790    0.99260    1.000
    C34      C        0.66760    0.50100    0.11370    1.000
    C35      C        0.21740    0.98870    0.69720    1.000
    C36      C        0.89700    0.17810    0.56320    1.000
    H21      H        0.01180    0.14640    0.58910    1.000
    C37      C        0.54660    0.19320    0.50180    1.000
    H22      H        0.40890    0.17240    0.48120    1.000
    C38      C        0.93660    0.25450    0.55650    1.000
    H23      H        0.07900    0.27350    0.57610    1.000
    C39      C        0.70060    0.50680    0.19620    1.000
    C40      C        0.89390    0.54240    0.22410    1.000
    H24      H        0.02300    0.56050    0.19080    1.000
    C41      C        0.99350    0.75270    0.00960    1.000
    H25      H        0.13210    0.77020    0.03250    1.000
    C42      C        0.03930    0.01450    0.75070    1.000
    H26      H        0.88760    0.03840    0.73610    1.000
    C43      C        0.89820    0.55140    0.30080    1.000
    H27      H        0.03010    0.57760    0.31870    1.000
    C44      C        0.54830    0.48910    0.32320    1.000
    H28      H        0.42760    0.46840    0.35770    1.000
    C45      C        0.45740    0.94650    0.79900    1.000
    H29      H        0.60590    0.92160    0.81490    1.000
    C46      C        0.97050    0.67590    0.00150    1.000
    H30      H        0.09260    0.64160    0.02120    1.000
    Li5      Li       0.80110    0.52960    0.96250    1.000
    C47      C        0.52520    0.47910    0.24770    1.000
    H31      H        0.39000    0.45340    0.23130    1.000
    C48      C        0.07870    0.00600    0.82640    1.000
    H32      H        0.95220    0.02560    0.86220    1.000
    Li6      Li       0.70590    0.53450    0.46660    1.000
    Li7      Li       0.68940    0.02760    0.53870    1.000
    Li8      Li       0.69010    0.03610    0.03180    1.000
