# CIF file generated by openbabel 3.1.0, see https://openbabel.org
data_I
_chemical_name_common 'image0'
_cell_length_a 22.497
_cell_length_b 19.421
_cell_length_c 12.646
_cell_angle_alpha 90
_cell_angle_beta 90
_cell_angle_gamma 90
_space_group_name_H-M_alt 'P 1'
_space_group_name_Hall 'P 1'
loop_
    _symmetry_equiv_pos_as_xyz
    x,y,z
loop_
    _atom_site_label
    _atom_site_type_symbol
    _atom_site_fract_x
    _atom_site_fract_y
    _atom_site_fract_z
    _atom_site_occupancy
    Cd1      Cd       0.07524    0.48857    0.06144    1.000
    O1       O        0.99907    0.56487    0.06910    1.000
    O2       O        0.07761    0.62420    0.01620    1.000
    O3       O        0.01237    0.43361    0.20360    1.000
    O4       O        0.08234    0.37762    0.11780    1.000
    N1       N        0.15466    0.53123    0.15940    1.000
    N2       N        0.18464    0.58355    0.11360    1.000
    H1       H        0.17200    0.61600    0.07600    1.000
    N3       N        0.37181    0.51259    0.40770    1.000
    N4       N        0.39321    0.48260    0.32020    1.000
    H2       H        0.43100    0.46500    0.31200    1.000
    C1       C        0.02507    0.62203    0.05120    1.000
    C2       C        0.99289    0.68767    0.07150    1.000
    C3       C        0.93416    0.68754    0.10860    1.000
    H3       H        0.91460    0.64600    0.11970    1.000
    C4       C        0.04005    0.37846    0.18140    1.000
    C5       C        0.02169    0.31166    0.23320    1.000
    C6       C        0.98603    0.31170    0.32270    1.000
    H4       H        0.97240    0.35310    0.35060    1.000
    C7       C        0.17800    0.44120    0.29180    1.000
    H5       H        0.15990    0.40660    0.24830    1.000
    H6       H        0.15060    0.45520    0.34580    1.000
    H7       H        0.21320    0.42280    0.32410    1.000
    C8       C        0.19425    0.50190    0.22520    1.000
    C9       C        0.24875    0.53720    0.22100    1.000
    C10      C        0.24112    0.58920    0.14880    1.000
    C11      C        0.28400    0.64400    0.11170    1.000
    H8       H        0.26340    0.67650    0.06770    1.000
    H9       H        0.31550    0.62290    0.07190    1.000
    H10      H        0.30050    0.66740    0.17180    1.000
    C12      C        0.27600    0.55550    0.45470    1.000
    H11      H        0.25670    0.51540    0.48310    1.000
    H12      H        0.24710    0.58390    0.41970    1.000
    H13      H        0.29410    0.58100    0.51110    1.000
    C13      C        0.28300    0.58290    0.46090    1.000
    H14      H        0.26610    0.55560    0.51650    1.000
    H15      H        0.25190    0.60580    0.42280    1.000
    H16      H        0.30940    0.61650    0.49080    1.000
    C14      C        0.31791    0.53600    0.38500    1.000
    C15      C        0.30408    0.52000    0.27940    1.000
    C16      C        0.35340    0.48650    0.24020    1.000
    C17      C        0.35300    0.43010    0.15260    1.000
    H17      H        0.39280    0.41390    0.14090    1.000
    H18      H        0.33750    0.44920    0.08820    1.000
    H19      H        0.32840    0.39240    0.17480    1.000
    C18      C        0.36970    0.46700    0.12640    1.000
    H20      H        0.35920    0.50400    0.07970    1.000
    H21      H        0.34850    0.42610    0.10630    1.000
    H22      H        0.41170    0.45860    0.12190    1.000
    Cd2      Cd       0.42476    0.51143    0.56144    1.000
    O5       O        0.50093    0.43513    0.56910    1.000
    O6       O        0.42239    0.37580    0.51620    1.000
    O7       O        0.48763    0.56639    0.70360    1.000
    O8       O        0.41766    0.62238    0.61780    1.000
    N5       N        0.34534    0.46877    0.65940    1.000
    N6       N        0.31536    0.41645    0.61360    1.000
    H23      H        0.32800    0.38400    0.57600    1.000
    N7       N        0.12819    0.48741    0.90770    1.000
    N8       N        0.10679    0.51740    0.82020    1.000
    H24      H        0.06900    0.53500    0.81200    1.000
    C19      C        0.47493    0.37797    0.55120    1.000
    C20      C        0.50711    0.31233    0.57150    1.000
    C21      C        0.56584    0.31246    0.60860    1.000
    H25      H        0.58540    0.35400    0.61970    1.000
    C22      C        0.45995    0.62154    0.68140    1.000
    C23      C        0.47831    0.68834    0.73320    1.000
    C24      C        0.51397    0.68830    0.82270    1.000
    H26      H        0.52760    0.64690    0.85060    1.000
    C25      C        0.32200    0.55880    0.79180    1.000
    H27      H        0.34010    0.59340    0.74830    1.000
    H28      H        0.34940    0.54480    0.84580    1.000
    H29      H        0.28680    0.57720    0.82410    1.000
    C26      C        0.30575    0.49810    0.72520    1.000
    C27      C        0.25125    0.46280    0.72100    1.000
    C28      C        0.25888    0.41080    0.64880    1.000
    C29      C        0.21600    0.35600    0.61170    1.000
    H30      H        0.23660    0.32350    0.56770    1.000
    H31      H        0.18450    0.37710    0.57190    1.000
    H32      H        0.19950    0.33260    0.67180    1.000
    C30      C        0.22400    0.44450    0.95470    1.000
    H33      H        0.24330    0.48460    0.98310    1.000
    H34      H        0.25290    0.41610    0.91970    1.000
    H35      H        0.20590    0.41900    0.01110    1.000
    C31      C        0.21700    0.41710    0.96090    1.000
    H36      H        0.23390    0.44440    0.01650    1.000
    H37      H        0.24810    0.39420    0.92280    1.000
    H38      H        0.19060    0.38350    0.99080    1.000
    C32      C        0.18209    0.46400    0.88500    1.000
    C33      C        0.19592    0.48000    0.77940    1.000
    C34      C        0.14660    0.51350    0.74020    1.000
    C35      C        0.14700    0.56990    0.65260    1.000
    H39      H        0.10720    0.58610    0.64090    1.000
    H40      H        0.16250    0.55080    0.58820    1.000
    H41      H        0.17160    0.60760    0.67480    1.000
    C36      C        0.13030    0.53300    0.62640    1.000
    H42      H        0.14080    0.49600    0.57970    1.000
    H43      H        0.15150    0.57390    0.60630    1.000
    H44      H        0.08830    0.54140    0.62190    1.000
    Cd3      Cd       0.07524    0.01143    0.06144    1.000
    O9       O        0.99907    0.93513    0.06910    1.000
    O10      O        0.07761    0.87580    0.01620    1.000
    O11      O        0.01237    0.06639    0.20360    1.000
    O12      O        0.08234    0.12238    0.11780    1.000
    N9       N        0.15466    0.96877    0.15940    1.000
    N10      N        0.18464    0.91645    0.11360    1.000
    H45      H        0.17200    0.88400    0.07600    1.000
    N11      N        0.37181    0.98741    0.40770    1.000
    N12      N        0.39321    0.01740    0.32020    1.000
    H46      H        0.43100    0.03500    0.31200    1.000
    C37      C        0.02507    0.87797    0.05120    1.000
    C38      C        0.99289    0.81233    0.07150    1.000
    C39      C        0.93416    0.81246    0.10860    1.000
    H47      H        0.91460    0.85400    0.11970    1.000
    C40      C        0.04005    0.12154    0.18140    1.000
    C41      C        0.02169    0.18834    0.23320    1.000
    C42      C        0.98603    0.18830    0.32270    1.000
    H48      H        0.97240    0.14690    0.35060    1.000
    C43      C        0.17800    0.05880    0.29180    1.000
    H49      H        0.15990    0.09340    0.24830    1.000
    H50      H        0.15060    0.04480    0.34580    1.000
    H51      H        0.21320    0.07720    0.32410    1.000
    C44      C        0.19425    0.99810    0.22520    1.000
    C45      C        0.24875    0.96280    0.22100    1.000
    C46      C        0.24112    0.91080    0.14880    1.000
    C47      C        0.28400    0.85600    0.11170    1.000
    H52      H        0.26340    0.82350    0.06770    1.000
    H53      H        0.31550    0.87710    0.07190    1.000
    H54      H        0.30050    0.83260    0.17180    1.000
    C48      C        0.27600    0.94450    0.45470    1.000
    H55      H        0.25670    0.98460    0.48310    1.000
    H56      H        0.24710    0.91610    0.41970    1.000
    H57      H        0.29410    0.91900    0.51110    1.000
    C49      C        0.28300    0.91710    0.46090    1.000
    H58      H        0.26610    0.94440    0.51650    1.000
    H59      H        0.25190    0.89420    0.42280    1.000
    H60      H        0.30940    0.88350    0.49080    1.000
    C50      C        0.31791    0.96400    0.38500    1.000
    C51      C        0.30408    0.98000    0.27940    1.000
    C52      C        0.35340    0.01350    0.24020    1.000
    C53      C        0.35300    0.06990    0.15260    1.000
    H61      H        0.39280    0.08610    0.14090    1.000
    H62      H        0.33750    0.05080    0.08820    1.000
    H63      H        0.32840    0.10760    0.17480    1.000
    C54      C        0.36970    0.03300    0.12640    1.000
    H64      H        0.35920    0.99600    0.07970    1.000
    H65      H        0.34850    0.07390    0.10630    1.000
    H66      H        0.41170    0.04140    0.12190    1.000
    Cd4      Cd       0.42476    0.98857    0.56144    1.000
    O13      O        0.50093    0.06487    0.56910    1.000
    O14      O        0.42239    0.12420    0.51620    1.000
    O15      O        0.48763    0.93361    0.70360    1.000
    O16      O        0.41766    0.87762    0.61780    1.000
    N13      N        0.34534    0.03123    0.65940    1.000
    N14      N        0.31536    0.08355    0.61360    1.000
    H67      H        0.32800    0.11600    0.57600    1.000
    N15      N        0.12819    0.01259    0.90770    1.000
    N16      N        0.10679    0.98260    0.82020    1.000
    H68      H        0.06900    0.96500    0.81200    1.000
    C55      C        0.47493    0.12203    0.55120    1.000
    C56      C        0.50711    0.18767    0.57150    1.000
    C57      C        0.56584    0.18754    0.60860    1.000
    H69      H        0.58540    0.14600    0.61970    1.000
    C58      C        0.45995    0.87846    0.68140    1.000
    C59      C        0.47831    0.81166    0.73320    1.000
    C60      C        0.51397    0.81170    0.82270    1.000
    H70      H        0.52760    0.85310    0.85060    1.000
    C61      C        0.32200    0.94120    0.79180    1.000
    H71      H        0.34010    0.90660    0.74830    1.000
    H72      H        0.34940    0.95520    0.84580    1.000
    H73      H        0.28680    0.92280    0.82410    1.000
    C62      C        0.30575    0.00190    0.72520    1.000
    C63      C        0.25125    0.03720    0.72100    1.000
    C64      C        0.25888    0.08920    0.64880    1.000
    C65      C        0.21600    0.14400    0.61170    1.000
    H74      H        0.23660    0.17650    0.56770    1.000
    H75      H        0.18450    0.12290    0.57190    1.000
    H76      H        0.19950    0.16740    0.67180    1.000
    C66      C        0.22400    0.05550    0.95470    1.000
    H77      H        0.24330    0.01540    0.98310    1.000
    H78      H        0.25290    0.08390    0.91970    1.000
    H79      H        0.20590    0.08100    0.01110    1.000
    C67      C        0.21700    0.08290    0.96090    1.000
    H80      H        0.23390    0.05560    0.01650    1.000
    H81      H        0.24810    0.10580    0.92280    1.000
    H82      H        0.19060    0.11650    0.99080    1.000
    C68      C        0.18209    0.03600    0.88500    1.000
    C69      C        0.19592    0.02000    0.77940    1.000
    C70      C        0.14660    0.98650    0.74020    1.000
    C71      C        0.14700    0.93010    0.65260    1.000
    H83      H        0.10720    0.91390    0.64090    1.000
    H84      H        0.16250    0.94920    0.58820    1.000
    H85      H        0.17160    0.89240    0.67480    1.000
    C72      C        0.13030    0.96700    0.62640    1.000
    H86      H        0.14080    0.00400    0.57970    1.000
    H87      H        0.15150    0.92610    0.60630    1.000
    H88      H        0.08830    0.95860    0.62190    1.000
    C73      C        0.90460    0.75000    0.12920    1.000
    H89      H        0.86610    0.75000    0.15590    1.000
    C74      C        0.02074    0.75000    0.05380    1.000
    H90      H        0.05970    0.75000    0.02910    1.000
    C75      C        0.59540    0.25000    0.62920    1.000
    H91      H        0.63390    0.25000    0.65590    1.000
    C76      C        0.47926    0.25000    0.55380    1.000
    H92      H        0.44030    0.25000    0.52910    1.000
    C77      C        0.97070    0.25000    0.37040    1.000
    H93      H        0.95020    0.25000    0.43430    1.000
    C78      C        0.03902    0.25000    0.19120    1.000
    H94      H        0.06350    0.25000    0.13190    1.000
    C79      C        0.52930    0.75000    0.87040    1.000
    H95      H        0.54980    0.75000    0.93430    1.000
    C80      C        0.46098    0.75000    0.69120    1.000
    H96      H        0.43650    0.75000    0.63190    1.000
    Cd5      Cd       0.92476    0.98857    0.93856    1.000
    O17      O        0.00093    0.06487    0.93090    1.000
    O18      O        0.92239    0.12420    0.98380    1.000
    O19      O        0.98763    0.93361    0.79640    1.000
    O20      O        0.91766    0.87762    0.88220    1.000
    N17      N        0.84534    0.03123    0.84060    1.000
    N18      N        0.81536    0.08355    0.88640    1.000
    H97      H        0.82800    0.11600    0.92400    1.000
    N19      N        0.62819    0.01259    0.59230    1.000
    N20      N        0.60679    0.98260    0.67980    1.000
    H98      H        0.56900    0.96500    0.68800    1.000
    C81      C        0.97493    0.12203    0.94880    1.000
    C82      C        0.00711    0.18767    0.92850    1.000
    C83      C        0.06584    0.18754    0.89140    1.000
    H99      H        0.08540    0.14600    0.88030    1.000
    C84      C        0.95995    0.87846    0.81860    1.000
    C85      C        0.97831    0.81166    0.76680    1.000
    C86      C        0.01397    0.81170    0.67730    1.000
    H100     H        0.02760    0.85310    0.64940    1.000
    C87      C        0.82200    0.94120    0.70820    1.000
    H101     H        0.84010    0.90660    0.75170    1.000
    H102     H        0.84940    0.95520    0.65420    1.000
    H103     H        0.78680    0.92280    0.67590    1.000
    C88      C        0.80575    0.00190    0.77480    1.000
    C89      C        0.75125    0.03720    0.77900    1.000
    C90      C        0.75888    0.08920    0.85120    1.000
    C91      C        0.71600    0.14400    0.88830    1.000
    H104     H        0.73660    0.17650    0.93230    1.000
    H105     H        0.68450    0.12290    0.92810    1.000
    H106     H        0.69950    0.16740    0.82820    1.000
    C92      C        0.72400    0.05550    0.54530    1.000
    H107     H        0.74330    0.01540    0.51690    1.000
    H108     H        0.75290    0.08390    0.58030    1.000
    H109     H        0.70590    0.08100    0.48890    1.000
    C93      C        0.71700    0.08290    0.53910    1.000
    H110     H        0.73390    0.05560    0.48350    1.000
    H111     H        0.74810    0.10580    0.57720    1.000
    H112     H        0.69060    0.11650    0.50920    1.000
    C94      C        0.68209    0.03600    0.61500    1.000
    C95      C        0.69592    0.02000    0.72060    1.000
    C96      C        0.64660    0.98650    0.75980    1.000
    C97      C        0.64700    0.93010    0.84740    1.000
    H113     H        0.60720    0.91390    0.85910    1.000
    H114     H        0.66250    0.94920    0.91180    1.000
    H115     H        0.67160    0.89240    0.82520    1.000
    C98      C        0.63030    0.96700    0.87360    1.000
    H116     H        0.64080    0.00400    0.92030    1.000
    H117     H        0.65150    0.92610    0.89370    1.000
    H118     H        0.58830    0.95860    0.87810    1.000
    Cd6      Cd       0.57524    0.01143    0.43856    1.000
    O21      O        0.49907    0.93513    0.43090    1.000
    O22      O        0.57761    0.87580    0.48380    1.000
    O23      O        0.51237    0.06639    0.29640    1.000
    O24      O        0.58234    0.12238    0.38220    1.000
    N21      N        0.65466    0.96877    0.34060    1.000
    N22      N        0.68464    0.91645    0.38640    1.000
    H119     H        0.67200    0.88400    0.42400    1.000
    N23      N        0.87181    0.98741    0.09230    1.000
    N24      N        0.89321    0.01740    0.17980    1.000
    H120     H        0.93100    0.03500    0.18800    1.000
    C99      C        0.52507    0.87797    0.44880    1.000
    C100     C        0.49289    0.81233    0.42850    1.000
    C101     C        0.43416    0.81246    0.39140    1.000
    H121     H        0.41460    0.85400    0.38030    1.000
    C102     C        0.54005    0.12154    0.31860    1.000
    C103     C        0.52169    0.18834    0.26680    1.000
    C104     C        0.48603    0.18830    0.17730    1.000
    H122     H        0.47240    0.14690    0.14940    1.000
    C105     C        0.67800    0.05880    0.20820    1.000
    H123     H        0.65990    0.09340    0.25170    1.000
    H124     H        0.65060    0.04480    0.15420    1.000
    H125     H        0.71320    0.07720    0.17590    1.000
    C106     C        0.69425    0.99810    0.27480    1.000
    C107     C        0.74875    0.96280    0.27900    1.000
    C108     C        0.74112    0.91080    0.35120    1.000
    C109     C        0.78400    0.85600    0.38830    1.000
    H126     H        0.76340    0.82350    0.43230    1.000
    H127     H        0.81550    0.87710    0.42810    1.000
    H128     H        0.80050    0.83260    0.32820    1.000
    C110     C        0.77600    0.94450    0.04530    1.000
    H129     H        0.75670    0.98460    0.01690    1.000
    H130     H        0.74710    0.91610    0.08030    1.000
    H131     H        0.79410    0.91900    0.98890    1.000
    C111     C        0.78300    0.91710    0.03910    1.000
    H132     H        0.76610    0.94440    0.98350    1.000
    H133     H        0.75190    0.89420    0.07720    1.000
    H134     H        0.80940    0.88350    0.00920    1.000
    C112     C        0.81791    0.96400    0.11500    1.000
    C113     C        0.80408    0.98000    0.22060    1.000
    C114     C        0.85340    0.01350    0.25980    1.000
    C115     C        0.85300    0.06990    0.34740    1.000
    H135     H        0.89280    0.08610    0.35910    1.000
    H136     H        0.83750    0.05080    0.41180    1.000
    H137     H        0.82840    0.10760    0.32520    1.000
    C116     C        0.86970    0.03300    0.37360    1.000
    H138     H        0.85920    0.99600    0.42030    1.000
    H139     H        0.84850    0.07390    0.39370    1.000
    H140     H        0.91170    0.04140    0.37810    1.000
    Cd7      Cd       0.92476    0.51143    0.93856    1.000
    O25      O        0.00093    0.43513    0.93090    1.000
    O26      O        0.92239    0.37580    0.98380    1.000
    O27      O        0.98763    0.56639    0.79640    1.000
    O28      O        0.91766    0.62238    0.88220    1.000
    N25      N        0.84534    0.46877    0.84060    1.000
    N26      N        0.81536    0.41645    0.88640    1.000
    H141     H        0.82800    0.38400    0.92400    1.000
    N27      N        0.62819    0.48741    0.59230    1.000
    N28      N        0.60679    0.51740    0.67980    1.000
    H142     H        0.56900    0.53500    0.68800    1.000
    C117     C        0.97493    0.37797    0.94880    1.000
    C118     C        0.00711    0.31233    0.92850    1.000
    C119     C        0.06584    0.31246    0.89140    1.000
    H143     H        0.08540    0.35400    0.88030    1.000
    C120     C        0.95995    0.62154    0.81860    1.000
    C121     C        0.97831    0.68834    0.76680    1.000
    C122     C        0.01397    0.68830    0.67730    1.000
    H144     H        0.02760    0.64690    0.64940    1.000
    C123     C        0.82200    0.55880    0.70820    1.000
    H145     H        0.84010    0.59340    0.75170    1.000
    H146     H        0.84940    0.54480    0.65420    1.000
    H147     H        0.78680    0.57720    0.67590    1.000
    C124     C        0.80575    0.49810    0.77480    1.000
    C125     C        0.75125    0.46280    0.77900    1.000
    C126     C        0.75888    0.41080    0.85120    1.000
    C127     C        0.71600    0.35600    0.88830    1.000
    H148     H        0.73660    0.32350    0.93230    1.000
    H149     H        0.68450    0.37710    0.92810    1.000
    H150     H        0.69950    0.33260    0.82820    1.000
    C128     C        0.72400    0.44450    0.54530    1.000
    H151     H        0.74330    0.48460    0.51690    1.000
    H152     H        0.75290    0.41610    0.58030    1.000
    H153     H        0.70590    0.41900    0.48890    1.000
    C129     C        0.71700    0.41710    0.53910    1.000
    H154     H        0.73390    0.44440    0.48350    1.000
    H155     H        0.74810    0.39420    0.57720    1.000
    H156     H        0.69060    0.38350    0.50920    1.000
    C130     C        0.68209    0.46400    0.61500    1.000
    C131     C        0.69592    0.48000    0.72060    1.000
    C132     C        0.64660    0.51350    0.75980    1.000
    C133     C        0.64700    0.56990    0.84740    1.000
    H157     H        0.60720    0.58610    0.85910    1.000
    H158     H        0.66250    0.55080    0.91180    1.000
    H159     H        0.67160    0.60760    0.82520    1.000
    C134     C        0.63030    0.53300    0.87360    1.000
    H160     H        0.64080    0.49600    0.92030    1.000
    H161     H        0.65150    0.57390    0.89370    1.000
    H162     H        0.58830    0.54140    0.87810    1.000
    Cd8      Cd       0.57524    0.48857    0.43856    1.000
    O29      O        0.49907    0.56487    0.43090    1.000
    O30      O        0.57761    0.62420    0.48380    1.000
    O31      O        0.51237    0.43361    0.29640    1.000
    O32      O        0.58234    0.37762    0.38220    1.000
    N29      N        0.65466    0.53123    0.34060    1.000
    N30      N        0.68464    0.58355    0.38640    1.000
    H163     H        0.67200    0.61600    0.42400    1.000
    N31      N        0.87181    0.51259    0.09230    1.000
    N32      N        0.89321    0.48260    0.17980    1.000
    H164     H        0.93100    0.46500    0.18800    1.000
    C135     C        0.52507    0.62203    0.44880    1.000
    C136     C        0.49289    0.68767    0.42850    1.000
    C137     C        0.43416    0.68754    0.39140    1.000
    H165     H        0.41460    0.64600    0.38030    1.000
    C138     C        0.54005    0.37846    0.31860    1.000
    C139     C        0.52169    0.31166    0.26680    1.000
    C140     C        0.48603    0.31170    0.17730    1.000
    H166     H        0.47240    0.35310    0.14940    1.000
    C141     C        0.67800    0.44120    0.20820    1.000
    H167     H        0.65990    0.40660    0.25170    1.000
    H168     H        0.65060    0.45520    0.15420    1.000
    H169     H        0.71320    0.42280    0.17590    1.000
    C142     C        0.69425    0.50190    0.27480    1.000
    C143     C        0.74875    0.53720    0.27900    1.000
    C144     C        0.74112    0.58920    0.35120    1.000
    C145     C        0.78400    0.64400    0.38830    1.000
    H170     H        0.76340    0.67650    0.43230    1.000
    H171     H        0.81550    0.62290    0.42810    1.000
    H172     H        0.80050    0.66740    0.32820    1.000
    C146     C        0.77600    0.55550    0.04530    1.000
    H173     H        0.75670    0.51540    0.01690    1.000
    H174     H        0.74710    0.58390    0.08030    1.000
    H175     H        0.79410    0.58100    0.98890    1.000
    C147     C        0.78300    0.58290    0.03910    1.000
    H176     H        0.76610    0.55560    0.98350    1.000
    H177     H        0.75190    0.60580    0.07720    1.000
    H178     H        0.80940    0.61650    0.00920    1.000
    C148     C        0.81791    0.53600    0.11500    1.000
    C149     C        0.80408    0.52000    0.22060    1.000
    C150     C        0.85340    0.48650    0.25980    1.000
    C151     C        0.85300    0.43010    0.34740    1.000
    H179     H        0.89280    0.41390    0.35910    1.000
    H180     H        0.83750    0.44920    0.41180    1.000
    H181     H        0.82840    0.39240    0.32520    1.000
    C152     C        0.86970    0.46700    0.37360    1.000
    H182     H        0.85920    0.50400    0.42030    1.000
    H183     H        0.84850    0.42610    0.39370    1.000
    H184     H        0.91170    0.45860    0.37810    1.000
    C153     C        0.09540    0.25000    0.87080    1.000
    H185     H        0.13390    0.25000    0.84410    1.000
    C154     C        0.97926    0.25000    0.94620    1.000
    H186     H        0.94030    0.25000    0.97090    1.000
    C155     C        0.40460    0.75000    0.37080    1.000
    H187     H        0.36610    0.75000    0.34410    1.000
    C156     C        0.52074    0.75000    0.44620    1.000
    H188     H        0.55970    0.75000    0.47090    1.000
    C157     C        0.02930    0.75000    0.62960    1.000
    H189     H        0.04980    0.75000    0.56570    1.000
    C158     C        0.96098    0.75000    0.80880    1.000
    H190     H        0.93650    0.75000    0.86810    1.000
    C159     C        0.47070    0.25000    0.12960    1.000
    H191     H        0.45020    0.25000    0.06570    1.000
    C160     C        0.53902    0.25000    0.30880    1.000
    H192     H        0.56350    0.25000    0.36810    1.000
