# CIF file generated by openbabel 3.1.0, see https://openbabel.org
data_I
_chemical_name_common 'image0'
_cell_length_a 17.0549
_cell_length_b 15.3986
_cell_length_c 23.0104
_cell_angle_alpha 90
_cell_angle_beta 102.754
_cell_angle_gamma 90
_space_group_name_H-M_alt 'P 1'
_space_group_name_Hall 'P 1'
loop_
    _symmetry_equiv_pos_as_xyz
    x,y,z
loop_
    _atom_site_label
    _atom_site_type_symbol
    _atom_site_fract_x
    _atom_site_fract_y
    _atom_site_fract_z
    _atom_site_occupancy
    Zn1      Zn       0.98123    0.22561    0.57224    1.000
    Zn2      Zn       0.88540    0.33108    0.43250    1.000
    Zn3      Zn       0.59030    0.03125    0.62390    1.000
    Zn4      Zn       0.54650    0.82961    0.66745    1.000
    O1       O        0.82000    0.22954    0.43963    1.000
    O2       O        0.95395    0.71360    0.48311    1.000
    O3       O        0.91645    0.15346    0.50090    1.000
    O4       O        0.00814    0.69934    0.58020    1.000
    O5       O        0.88346    0.42177    0.49110    1.000
    O6       O        0.89311    0.32072    0.56132    1.000
    O7       O        0.55069    0.11308    0.37757    1.000
    O8       O        0.67065    0.94862    0.60799    1.000
    O9       O        0.90939    0.40819    0.76648    1.000
    O10      O        0.88600    0.54467    0.78995    1.000
    O11      O        0.51383    0.99705    0.42271    1.000
    O12      O        0.62308    0.81415    0.61746    1.000
    C1       C        0.80772    0.01882    0.50725    1.000
    H1       H        0.86210    0.01180    0.52790    1.000
    C2       C        0.86784    0.55346    0.57081    1.000
    H2       H        0.86390    0.56830    0.53020    1.000
    C3       C        0.78500    0.09460    0.47470    1.000
    C4       C        0.64960    0.04020    0.44690    1.000
    C5       C        0.76870    0.74740    0.60360    1.000
    H3       H        0.74080    0.71850    0.62950    1.000
    C6       C        0.88350    0.46880    0.58920    1.000
    C7       C        0.74168    0.82818    0.58072    1.000
    C8       C        0.95218    0.71835    0.53622    1.000
    C9       C        0.88730    0.39763    0.54381    1.000
    C10      C        0.67262    0.96523    0.47936    1.000
    H4       H        0.63390    0.92140    0.48080    1.000
    C11      C        0.84640    0.16380    0.47220    1.000
    C12      C        0.86550    0.59574    0.67089    1.000
    H5       H        0.85860    0.63880    0.69890    1.000
    C13      C        0.78065    0.87092    0.54107    1.000
    C14      C        0.75255    0.95342    0.51011    1.000
    C15      C        0.88340    0.51018    0.68943    1.000
    C16      C        0.84764    0.83134    0.52708    1.000
    H6       H        0.87460    0.85950    0.50030    1.000
    C17      C        0.87630    0.75090    0.55160    1.000
    C18      C        0.70511    0.10491    0.44399    1.000
    H7       H        0.68900    0.15600    0.42130    1.000
    C19      C        0.83624    0.70722    0.58962    1.000
    C20      C        0.89215    0.44707    0.64874    1.000
    H8       H        0.90410    0.38890    0.66150    1.000
    C21      C        0.85780    0.61740    0.61140    1.000
    C22      C        0.56420    0.05140    0.41360    1.000
    C23      C        0.67250    0.86630    0.60330    1.000
    C24      C        0.89490    0.48540    0.75395    1.000
    Zn5      Zn       0.51877    0.72561    0.92776    1.000
    Zn6      Zn       0.61460    0.83108    0.06750    1.000
    Zn7      Zn       0.90970    0.53125    0.87610    1.000
    Zn8      Zn       0.95350    0.32961    0.83255    1.000
    O13      O        0.68000    0.72954    0.06037    1.000
    O14      O        0.54605    0.21360    0.01689    1.000
    O15      O        0.58355    0.65346    0.99910    1.000
    O16      O        0.49186    0.19934    0.91980    1.000
    O17      O        0.61654    0.92177    0.00890    1.000
    O18      O        0.60689    0.82072    0.93868    1.000
    O19      O        0.94931    0.61308    0.12243    1.000
    O20      O        0.82935    0.44862    0.89201    1.000
    O21      O        0.59061    0.90819    0.73352    1.000
    O22      O        0.61400    0.04467    0.71005    1.000
    O23      O        0.98617    0.49705    0.07729    1.000
    O24      O        0.87692    0.31415    0.88254    1.000
    C25      C        0.69228    0.51882    0.99275    1.000
    H9       H        0.63790    0.51180    0.97210    1.000
    C26      C        0.63216    0.05346    0.92919    1.000
    H10      H        0.63610    0.06830    0.96980    1.000
    C27      C        0.71500    0.59460    0.02530    1.000
    C28      C        0.85040    0.54020    0.05310    1.000
    C29      C        0.73130    0.24740    0.89640    1.000
    H11      H        0.75920    0.21850    0.87050    1.000
    C30      C        0.61650    0.96880    0.91080    1.000
    C31      C        0.75832    0.32818    0.91928    1.000
    C32      C        0.54782    0.21835    0.96378    1.000
    C33      C        0.61270    0.89763    0.95619    1.000
    C34      C        0.82738    0.46523    0.02064    1.000
    H12      H        0.86610    0.42140    0.01920    1.000
    C35      C        0.65360    0.66380    0.02780    1.000
    C36      C        0.63450    0.09574    0.82911    1.000
    H13      H        0.64140    0.13880    0.80110    1.000
    C37      C        0.71935    0.37092    0.95893    1.000
    C38      C        0.74745    0.45342    0.98989    1.000
    C39      C        0.61660    0.01018    0.81057    1.000
    C40      C        0.65236    0.33134    0.97292    1.000
    H14      H        0.62540    0.35950    0.99970    1.000
    C41      C        0.62370    0.25090    0.94840    1.000
    C42      C        0.79489    0.60491    0.05601    1.000
    H15      H        0.81100    0.65600    0.07870    1.000
    C43      C        0.66376    0.20722    0.91038    1.000
    C44      C        0.60785    0.94707    0.85126    1.000
    H16      H        0.59590    0.88890    0.83850    1.000
    C45      C        0.64220    0.11740    0.88860    1.000
    C46      C        0.93580    0.55140    0.08640    1.000
    C47      C        0.82750    0.36630    0.89670    1.000
    C48      C        0.60510    0.98540    0.74605    1.000
    Zn9      Zn       0.01877    0.77439    0.42776    1.000
    Zn10     Zn       0.11460    0.66892    0.56750    1.000
    Zn11     Zn       0.40970    0.96875    0.37610    1.000
    Zn12     Zn       0.45350    0.17039    0.33255    1.000
    O25      O        0.18000    0.77046    0.56037    1.000
    O26      O        0.04605    0.28640    0.51689    1.000
    O27      O        0.08355    0.84654    0.49910    1.000
    O28      O        0.99186    0.30066    0.41980    1.000
    O29      O        0.11654    0.57823    0.50890    1.000
    O30      O        0.10689    0.67928    0.43868    1.000
    O31      O        0.44931    0.88692    0.62243    1.000
    O32      O        0.32935    0.05138    0.39201    1.000
    O33      O        0.09061    0.59181    0.23352    1.000
    O34      O        0.11400    0.45533    0.21005    1.000
    O35      O        0.48617    0.00295    0.57729    1.000
    O36      O        0.37692    0.18585    0.38254    1.000
    C49      C        0.19228    0.98118    0.49275    1.000
    H17      H        0.13790    0.98820    0.47210    1.000
    C50      C        0.13216    0.44654    0.42919    1.000
    H18      H        0.13610    0.43170    0.46980    1.000
    C51      C        0.21500    0.90540    0.52530    1.000
    C52      C        0.35040    0.95980    0.55310    1.000
    C53      C        0.23130    0.25260    0.39640    1.000
    H19      H        0.25920    0.28150    0.37050    1.000
    C54      C        0.11650    0.53120    0.41080    1.000
    C55      C        0.25832    0.17182    0.41928    1.000
    C56      C        0.04782    0.28165    0.46378    1.000
    C57      C        0.11270    0.60237    0.45619    1.000
    C58      C        0.32738    0.03477    0.52064    1.000
    H20      H        0.36610    0.07860    0.51920    1.000
    C59      C        0.15360    0.83620    0.52780    1.000
    C60      C        0.13450    0.40426    0.32911    1.000
    H21      H        0.14140    0.36120    0.30110    1.000
    C61      C        0.21935    0.12908    0.45893    1.000
    C62      C        0.24745    0.04658    0.48989    1.000
    C63      C        0.11660    0.48982    0.31057    1.000
    C64      C        0.15236    0.16866    0.47292    1.000
    H22      H        0.12540    0.14050    0.49970    1.000
    C65      C        0.12370    0.24910    0.44840    1.000
    C66      C        0.29489    0.89509    0.55601    1.000
    H23      H        0.31100    0.84400    0.57870    1.000
    C67      C        0.16376    0.29278    0.41038    1.000
    C68      C        0.10785    0.55293    0.35126    1.000
    H24      H        0.09590    0.61110    0.33850    1.000
    C69      C        0.14220    0.38260    0.38860    1.000
    C70      C        0.43580    0.94860    0.58640    1.000
    C71      C        0.32750    0.13370    0.39670    1.000
    C72      C        0.10510    0.51460    0.24605    1.000
    Zn13     Zn       0.48123    0.27439    0.07224    1.000
    Zn14     Zn       0.38540    0.16892    0.93250    1.000
    Zn15     Zn       0.09030    0.46875    0.12390    1.000
    Zn16     Zn       0.04650    0.67039    0.16745    1.000
    O37      O        0.32000    0.27046    0.93963    1.000
    O38      O        0.45395    0.78640    0.98311    1.000
    O39      O        0.41645    0.34654    0.00090    1.000
    O40      O        0.50814    0.80066    0.08020    1.000
    O41      O        0.38346    0.07823    0.99110    1.000
    O42      O        0.39311    0.17928    0.06132    1.000
    O43      O        0.05069    0.38692    0.87757    1.000
    O44      O        0.17065    0.55138    0.10799    1.000
    O45      O        0.40939    0.09181    0.26648    1.000
    O46      O        0.38600    0.95533    0.28995    1.000
    O47      O        0.01383    0.50295    0.92271    1.000
    O48      O        0.12308    0.68585    0.11746    1.000
    C73      C        0.30772    0.48118    0.00725    1.000
    H25      H        0.36210    0.48820    0.02790    1.000
    C74      C        0.36784    0.94654    0.07081    1.000
    H26      H        0.36390    0.93170    0.03020    1.000
    C75      C        0.28500    0.40540    0.97470    1.000
    C76      C        0.14960    0.45980    0.94690    1.000
    C77      C        0.26870    0.75260    0.10360    1.000
    H27      H        0.24080    0.78150    0.12950    1.000
    C78      C        0.38350    0.03120    0.08920    1.000
    C79      C        0.24168    0.67182    0.08072    1.000
    C80      C        0.45218    0.78165    0.03622    1.000
    C81      C        0.38730    0.10237    0.04381    1.000
    C82      C        0.17262    0.53477    0.97936    1.000
    H28      H        0.13390    0.57860    0.98080    1.000
    C83      C        0.34640    0.33620    0.97220    1.000
    C84      C        0.36550    0.90426    0.17089    1.000
    H29      H        0.35860    0.86120    0.19890    1.000
    C85      C        0.28065    0.62908    0.04107    1.000
    C86      C        0.25255    0.54658    0.01011    1.000
    C87      C        0.38340    0.98982    0.18943    1.000
    C88      C        0.34764    0.66866    0.02708    1.000
    H30      H        0.37460    0.64050    0.00030    1.000
    C89      C        0.37630    0.74910    0.05160    1.000
    C90      C        0.20511    0.39509    0.94399    1.000
    H31      H        0.18900    0.34400    0.92130    1.000
    C91      C        0.33624    0.79278    0.08962    1.000
    C92      C        0.39215    0.05293    0.14874    1.000
    H32      H        0.40410    0.11110    0.16150    1.000
    C93      C        0.35780    0.88260    0.11140    1.000
    C94      C        0.06420    0.44860    0.91360    1.000
    C95      C        0.17250    0.63370    0.10330    1.000
    C96      C        0.39490    0.01460    0.25395    1.000
