# CIF file generated by openbabel 3.1.0, see https://openbabel.org
data_I
_chemical_name_common 'WOCJII_charged'
_cell_length_a 10.225
_cell_length_b 13.954
_cell_length_c 19.053
_cell_angle_alpha 90
_cell_angle_beta 90
_cell_angle_gamma 99.509
_space_group_name_H-M_alt 'P 1'
_space_group_name_Hall 'P 1'
loop_
    _symmetry_equiv_pos_as_xyz
    x,y,z
loop_
    _atom_site_label
    _atom_site_type_symbol
    _atom_site_fract_x
    _atom_site_fract_y
    _atom_site_fract_z
    _atom_site_occupancy
    K1       K        0.68135    0.58870    0.85146    1.000
    K2       K        0.66840    0.08141    0.35274    1.000
    K3       K        0.82140    0.41787    0.54858    1.000
    K4       K        0.17340    0.09519    0.55079    1.000
    K5       K        0.31865    0.41130    0.35146    1.000
    K6       K        0.33160    0.91859    0.85274    1.000
    K7       K        0.17860    0.58213    0.04858    1.000
    K8       K        0.82660    0.90481    0.05079    1.000
    Zr1      Zr       0.49856    0.25612    0.62867    1.000
    Zr2      Zr       0.00885    0.75503    0.77298    1.000
    Zr3      Zr       0.50144    0.74388    0.12867    1.000
    Zr4      Zr       0.99115    0.24497    0.27298    1.000
    C1       C        0.66990    0.16580    0.52280    1.000
    C2       C        0.52850    0.10660    0.51520    1.000
    C3       C        0.49440    0.08360    0.72760    1.000
    C4       C        0.34770    0.10150    0.72530    1.000
    C5       C        0.51040    0.42860    0.72960    1.000
    C6       C        0.65720    0.41460    0.72050    1.000
    C7       C        0.31960    0.34130    0.52420    1.000
    C8       C        0.45710    0.40380    0.51520    1.000
    C9       C        0.18460    0.66780    0.87580    1.000
    C10      C        0.04320    0.60440    0.88470    1.000
    C11      C        0.00170    0.58690    0.66650    1.000
    C12      C        0.86930    0.62210    0.65920    1.000
    C13      C        0.15560    0.89730    0.66690    1.000
    C14      C        0.01970    0.92990    0.67170    1.000
    C15      C        0.82820    0.83740    0.87560    1.000
    C16      C        0.96690    0.90030    0.88770    1.000
    C17      C        0.33010    0.83420    0.02280    1.000
    C18      C        0.47150    0.89340    0.01520    1.000
    C19      C        0.50560    0.91640    0.22760    1.000
    C20      C        0.65230    0.89850    0.22530    1.000
    C21      C        0.48960    0.57140    0.22960    1.000
    C22      C        0.34280    0.58540    0.22050    1.000
    C23      C        0.68040    0.65870    0.02420    1.000
    C24      C        0.54290    0.59620    0.01520    1.000
    C25      C        0.81540    0.33220    0.37580    1.000
    C26      C        0.95680    0.39560    0.38470    1.000
    C27      C        0.99830    0.41310    0.16650    1.000
    C28      C        0.13070    0.37790    0.15920    1.000
    C29      C        0.84440    0.10270    0.16690    1.000
    C30      C        0.98030    0.07010    0.17170    1.000
    C31      C        0.17180    0.16260    0.37560    1.000
    C32      C        0.03310    0.09970    0.38770    1.000
    O1       O        0.67680    0.23130    0.57080    1.000
    O2       O        0.44460    0.13220    0.55720    1.000
    O3       O        0.76060    0.14840    0.48640    1.000
    O4       O        0.50590    0.04030    0.47120    1.000
    O5       O        0.57510    0.14840    0.69540    1.000
    O6       O        0.33230    0.17080    0.68400    1.000
    O7       O        0.52010    0.01070    0.75630    1.000
    O8       O        0.26240    0.05160    0.76060    1.000
    O9       O        0.42880    0.36410    0.69700    1.000
    O10      O        0.66940    0.34250    0.67990    1.000
    O11      O        0.48510    0.49710    0.76360    1.000
    O12      O        0.74720    0.46870    0.74920    1.000
    O13      O        0.31460    0.27980    0.57440    1.000
    O14      O        0.54480    0.38030    0.55610    1.000
    O15      O        0.22720    0.35290    0.48620    1.000
    O16      O        0.47560    0.46880    0.47070    1.000
    O17      O        0.18990    0.73010    0.82610    1.000
    O18      O        0.95710    0.63180    0.84430    1.000
    O19      O        0.27500    0.65410    0.91530    1.000
    O20      O        0.02630    0.53770    0.92680    1.000
    O21      O        0.07940    0.63640    0.71080    1.000
    O22      O        0.85110    0.68770    0.70440    1.000
    O23      O        0.02820    0.51870    0.63040    1.000
    O24      O        0.78980    0.59160    0.61220    1.000
    O25      O        0.17180    0.82930    0.71040    1.000
    O26      O        0.94260    0.87870    0.71540    1.000
    O27      O        0.23760    0.93390    0.62290    1.000
    O28      O        0.99050    0.99660    0.63710    1.000
    O29      O        0.82480    0.77660    0.82550    1.000
    O30      O        0.05730    0.87310    0.84870    1.000
    O31      O        0.73590    0.84750    0.91560    1.000
    O32      O        0.98200    0.96730    0.92920    1.000
    O33      O        0.32320    0.76870    0.07080    1.000
    O34      O        0.55540    0.86780    0.05720    1.000
    O35      O        0.23940    0.85160    0.98640    1.000
    O36      O        0.49410    0.95970    0.97120    1.000
    O37      O        0.42490    0.85160    0.19540    1.000
    O38      O        0.66770    0.82920    0.18400    1.000
    O39      O        0.47990    0.98930    0.25630    1.000
    O40      O        0.73760    0.94840    0.26060    1.000
    O41      O        0.57120    0.63590    0.19700    1.000
    O42      O        0.33060    0.65750    0.17990    1.000
    O43      O        0.51490    0.50290    0.26360    1.000
    O44      O        0.25280    0.53130    0.24920    1.000
    O45      O        0.68540    0.72020    0.07440    1.000
    O46      O        0.45520    0.61970    0.05610    1.000
    O47      O        0.77280    0.64710    0.98620    1.000
    O48      O        0.52440    0.53120    0.97070    1.000
    O49      O        0.81010    0.26990    0.32610    1.000
    O50      O        0.04290    0.36820    0.34430    1.000
    O51      O        0.72500    0.34590    0.41530    1.000
    O52      O        0.97370    0.46230    0.42680    1.000
    O53      O        0.92060    0.36360    0.21080    1.000
    O54      O        0.14890    0.31230    0.20440    1.000
    O55      O        0.97180    0.48130    0.13040    1.000
    O56      O        0.21020    0.40840    0.11220    1.000
    O57      O        0.82820    0.17070    0.21040    1.000
    O58      O        0.05740    0.12130    0.21540    1.000
    O59      O        0.76240    0.06610    0.12290    1.000
    O60      O        0.00950    0.00340    0.13710    1.000
    O61      O        0.17520    0.22340    0.32550    1.000
    O62      O        0.94270    0.12690    0.34870    1.000
    O63      O        0.26410    0.15250    0.41560    1.000
    O64      O        0.01800    0.03270    0.42920    1.000
    H1       H        0.67570    0.68720    0.60910    1.000
    H2       H        0.38520    0.86700    0.62540    1.000
    H3       H        0.74800    0.83980    0.57180    1.000
    H4       H        0.73160    0.84430    0.65700    1.000
    H5       H        0.57320    0.91230    0.55240    1.000
    H6       H        0.59270    0.94740    0.63410    1.000
    H7       H        0.48190    0.63880    0.67810    1.000
    H8       H        0.60540    0.70260    0.72040    1.000
    H9       H        0.36920    0.75490    0.71040    1.000
    H10      H        0.50540    0.83200    0.72390    1.000
    H11      H        0.49490    0.63250    0.54870    1.000
    H12      H        0.56990    0.72930    0.50810    1.000
    H13      H        0.37770    0.78680    0.52350    1.000
    H14      H        0.32790    0.70770    0.58500    1.000
    C33      C        0.68360    0.82830    0.61170    1.000
    C34      C        0.57500    0.88970    0.60220    1.000
    C35      C        0.54180    0.70310    0.68060    1.000
    C36      C        0.45830    0.78220    0.69080    1.000
    C37      C        0.52510    0.70420    0.55270    1.000
    C38      C        0.40440    0.75560    0.56730    1.000
    N1       N        0.61640    0.72410    0.61210    1.000
    N2       N        0.44430    0.83000    0.62210    1.000
    H15      H        0.86160    0.12200    0.77390    1.000
    H16      H        0.12210    0.38760    0.77180    1.000
    H17      H        0.81680    0.22500    0.85670    1.000
    H18      H        0.77250    0.26420    0.78100    1.000
    H19      H        0.98120    0.35140    0.86740    1.000
    H20      H        0.91290    0.40140    0.80250    1.000
    H21      H        0.98320    0.15900    0.67410    1.000
    H22      H        0.85190    0.21150    0.67610    1.000
    H23      H        0.10620    0.30530    0.66920    1.000
    H24      H        0.97600    0.35760    0.67970    1.000
    H25      H        0.07360    0.10840    0.79080    1.000
    H26      H        0.01810    0.15330    0.86190    1.000
    H27      H        0.21260    0.24610    0.76810    1.000
    H28      H        0.17990    0.28020    0.84730    1.000
    C39      C        0.84920    0.25030    0.80960    1.000
    C40      C        0.95220    0.34360    0.81730    1.000
    C41      C        0.93840    0.20730    0.69940    1.000
    C42      C        0.02630    0.30780    0.69890    1.000
    C43      C        0.03790    0.16500    0.81090    1.000
    C44      C        0.14050    0.25800    0.80080    1.000
    N3       N        0.91460    0.17670    0.77330    1.000
    N4       N        0.06890    0.33300    0.77230    1.000
    H29      H        0.32430    0.31280    0.10910    1.000
    H30      H        0.61480    0.13300    0.12540    1.000
    H31      H        0.25200    0.16020    0.07180    1.000
    H32      H        0.26840    0.15570    0.15700    1.000
    H33      H        0.42680    0.08770    0.05240    1.000
    H34      H        0.40730    0.05260    0.13410    1.000
    H35      H        0.51810    0.36120    0.17810    1.000
    H36      H        0.39460    0.29740    0.22040    1.000
    H37      H        0.63080    0.24510    0.21040    1.000
    H38      H        0.49460    0.16800    0.22390    1.000
    H39      H        0.50510    0.36750    0.04870    1.000
    H40      H        0.43010    0.27070    0.00810    1.000
    H41      H        0.62230    0.21320    0.02350    1.000
    H42      H        0.67210    0.29230    0.08500    1.000
    C45      C        0.31640    0.17170    0.11170    1.000
    C46      C        0.42500    0.11030    0.10220    1.000
    C47      C        0.45820    0.29690    0.18060    1.000
    C48      C        0.54170    0.21780    0.19080    1.000
    C49      C        0.47490    0.29580    0.05270    1.000
    C50      C        0.59560    0.24440    0.06730    1.000
    N5       N        0.38360    0.27590    0.11210    1.000
    N6       N        0.55570    0.17000    0.12210    1.000
    H43      H        0.13840    0.87800    0.27390    1.000
    H44      H        0.87790    0.61240    0.27180    1.000
    H45      H        0.18320    0.77500    0.35670    1.000
    H46      H        0.22750    0.73580    0.28100    1.000
    H47      H        0.01880    0.64860    0.36740    1.000
    H48      H        0.08710    0.59860    0.30250    1.000
    H49      H        0.01680    0.84100    0.17410    1.000
    H50      H        0.14810    0.78850    0.17610    1.000
    H51      H        0.89380    0.69470    0.16920    1.000
    H52      H        0.02400    0.64240    0.17970    1.000
    H53      H        0.92640    0.89160    0.29080    1.000
    H54      H        0.98190    0.84670    0.36190    1.000
    H55      H        0.78740    0.75390    0.26810    1.000
    H56      H        0.82010    0.71980    0.34730    1.000
    C51      C        0.15080    0.74970    0.30960    1.000
    C52      C        0.04780    0.65640    0.31730    1.000
    C53      C        0.06160    0.79270    0.19940    1.000
    C54      C        0.97370    0.69220    0.19890    1.000
    C55      C        0.96210    0.83500    0.31090    1.000
    C56      C        0.85950    0.74200    0.30080    1.000
    N7       N        0.08540    0.82330    0.27330    1.000
    N8       N        0.93110    0.66700    0.27230    1.000
