# CIF file generated by openbabel 3.1.0, see https://openbabel.org
data_I
_chemical_name_common 'image0'
_cell_length_a 9.5522
_cell_length_b 12.933
_cell_length_c 18.7637
_cell_angle_alpha 106.972
_cell_angle_beta 98.249
_cell_angle_gamma 97.794
_space_group_name_H-M_alt 'P 1'
_space_group_name_Hall 'P 1'
loop_
    _symmetry_equiv_pos_as_xyz
    x,y,z
loop_
    _atom_site_label
    _atom_site_type_symbol
    _atom_site_fract_x
    _atom_site_fract_y
    _atom_site_fract_z
    _atom_site_occupancy
    Gd1      Gd       0.23407    0.01044    0.50250    1.000
    O1       O        0.44800    0.03880    0.58799    1.000
    O2       O        0.68220    0.04520    0.61450    1.000
    O3       O        0.85720    0.05160    0.40078    1.000
    O4       O        0.79270    0.82960    0.39834    1.000
    O5       O        0.09800    0.09520    0.42950    1.000
    O6       O        0.02960    0.88100    0.42938    1.000
    N1       N        0.56440    0.17660    0.86957    1.000
    N2       N        0.99000    0.13380    0.17500    1.000
    C1       C        0.56330    0.05690    0.63230    1.000
    N3       N        0.95710    0.59340    0.18020    1.000
    C2       C        0.56280    0.09720    0.71690    1.000
    C3       C        0.93070    0.73600    0.31590    1.000
    C4       C        0.98020    0.10150    0.31210    1.000
    C5       C        0.90850    0.22260    0.07700    1.000
    C6       C        0.68900    0.11890    0.76890    1.000
    H1       H        0.77410    0.10540    0.75250    1.000
    C7       C        0.91780    0.82210    0.38830    1.000
    C8       C        0.97740    0.08070    0.38740    1.000
    C9       C        0.77430    0.18350    0.02840    1.000
    C10      C        0.68850    0.16110    0.84590    1.000
    H2       H        0.77410    0.17860    0.88110    1.000
    C11      C        0.90010    0.40890    0.07930    1.000
    C12      C        0.85840    0.11420    0.26890    1.000
    H3       H        0.77170    0.11120    0.28590    1.000
    C13      C        0.43620    0.11360    0.74280    1.000
    H4       H        0.34940    0.09720    0.70860    1.000
    C14      C        0.96930    0.33460    0.10430    1.000
    C15      C        0.70410    0.25940    0.00410    1.000
    C16      C        0.10820    0.10700    0.28570    1.000
    H5       H        0.19260    0.10170    0.31490    1.000
    C17      C        0.76610    0.37160    0.02750    1.000
    C18      C        0.81130    0.66930    0.26470    1.000
    H6       H        0.71960    0.67120    0.27570    1.000
    C19      C        0.06530    0.72470    0.29880    1.000
    H7       H        0.14800    0.76510    0.33360    1.000
    C20      C        0.83040    0.59980    0.19700    1.000
    H8       H        0.74980    0.55600    0.16200    1.000
    C21      C        0.44000    0.15430    0.81940    1.000
    H9       H        0.35550    0.16650    0.83690    1.000
    C22      C        0.86560    0.13130    0.20070    1.000
    H10      H        0.78380    0.14130    0.17200    1.000
    C23      C        0.10880    0.12020    0.21540    1.000
    H11      H        0.19300    0.11970    0.19600    1.000
    C24      C        0.99280    0.14060    0.09660    1.000
    H12      H        0.95400    0.06850    0.05990    1.000
    H13      H        0.09210    0.16080    0.09230    1.000
    C25      C        0.55900    0.21840    0.95240    1.000
    H14      H        0.50720    0.15950    0.96630    1.000
    H15      H        0.50490    0.27770    0.96060    1.000
    C26      C        0.97550    0.52730    0.10370    1.000
    H16      H        0.07750    0.52960    0.10390    1.000
    H17      H        0.93870    0.56090    0.06670    1.000
    C27      C        0.07630    0.65370    0.23040    1.000
    H18      H        0.16660    0.64720    0.21860    1.000
    C28      C        0.11130    0.37450    0.16000    1.000
    H19      H        0.09990    0.36060    0.20660    1.000
    H20      H        0.14140    0.45210    0.16990    1.000
    H21      H        0.18260    0.33610    0.13890    1.000
    C29      C        0.70940    0.06360    0.99990    1.000
    H22      H        0.77060    0.02370    0.97050    1.000
    H23      H        0.61630    0.05260    0.96870    1.000
    H24      H        0.69970    0.03760    0.04220    1.000
    C30      C        0.68890    0.45030    0.99930    1.000
    H25      H        0.73880    0.52440    0.02560    1.000
    H26      H        0.59230    0.44220    0.00840    1.000
    H27      H        0.68630    0.43430    0.94580    1.000
    Gd2      Gd       0.76593    0.98956    0.49750    1.000
    O7       O        0.55200    0.96120    0.41201    1.000
    O8       O        0.31780    0.95480    0.38550    1.000
    O9       O        0.14280    0.94840    0.59922    1.000
    O10      O        0.20730    0.17040    0.60166    1.000
    O11      O        0.90200    0.90480    0.57050    1.000
    O12      O        0.97040    0.11900    0.57062    1.000
    N4       N        0.43560    0.82340    0.13043    1.000
    N5       N        0.01000    0.86620    0.82500    1.000
    C31      C        0.43670    0.94310    0.36770    1.000
    N6       N        0.04290    0.40660    0.81980    1.000
    C32      C        0.43720    0.90280    0.28310    1.000
    C33      C        0.06930    0.26400    0.68410    1.000
    C34      C        0.01980    0.89850    0.68790    1.000
    C35      C        0.09150    0.77740    0.92300    1.000
    C36      C        0.31100    0.88110    0.23110    1.000
    H28      H        0.22590    0.89460    0.24750    1.000
    C37      C        0.08220    0.17790    0.61170    1.000
    C38      C        0.02260    0.91930    0.61260    1.000
    C39      C        0.22570    0.81650    0.97160    1.000
    C40      C        0.31150    0.83890    0.15410    1.000
    H29      H        0.22590    0.82140    0.11890    1.000
    C41      C        0.09990    0.59110    0.92070    1.000
    C42      C        0.14160    0.88580    0.73110    1.000
    H30      H        0.22830    0.88880    0.71410    1.000
    C43      C        0.56380    0.88640    0.25720    1.000
    H31      H        0.65060    0.90280    0.29140    1.000
    C44      C        0.03070    0.66540    0.89570    1.000
    C45      C        0.29590    0.74060    0.99590    1.000
    C46      C        0.89180    0.89300    0.71430    1.000
    H32      H        0.80740    0.89830    0.68510    1.000
    C47      C        0.23390    0.62840    0.97250    1.000
    C48      C        0.18870    0.33070    0.73530    1.000
    H33      H        0.28040    0.32880    0.72430    1.000
    C49      C        0.93470    0.27530    0.70120    1.000
    H34      H        0.85200    0.23490    0.66640    1.000
    C50      C        0.16960    0.40020    0.80300    1.000
    H35      H        0.25020    0.44400    0.83800    1.000
    C51      C        0.56000    0.84570    0.18060    1.000
    H36      H        0.64450    0.83350    0.16310    1.000
    C52      C        0.13440    0.86870    0.79930    1.000
    H37      H        0.21620    0.85870    0.82800    1.000
    C53      C        0.89120    0.87980    0.78460    1.000
    H38      H        0.80700    0.88030    0.80400    1.000
    C54      C        0.00720    0.85940    0.90340    1.000
    H39      H        0.04600    0.93150    0.94010    1.000
    H40      H        0.90790    0.83920    0.90770    1.000
    C55      C        0.44100    0.78160    0.04760    1.000
    H41      H        0.49280    0.84050    0.03370    1.000
    H42      H        0.49510    0.72230    0.03940    1.000
    C56      C        0.02450    0.47270    0.89630    1.000
    H43      H        0.92250    0.47040    0.89610    1.000
    H44      H        0.06130    0.43910    0.93330    1.000
    C57      C        0.92370    0.34630    0.76960    1.000
    H45      H        0.83340    0.35280    0.78140    1.000
    C58      C        0.88870    0.62550    0.84000    1.000
    H46      H        0.90010    0.63940    0.79340    1.000
    H47      H        0.85860    0.54790    0.83010    1.000
    H48      H        0.81740    0.66390    0.86110    1.000
    C59      C        0.29060    0.93640    0.00010    1.000
    H49      H        0.22940    0.97630    0.02950    1.000
    H50      H        0.38370    0.94740    0.03130    1.000
    H51      H        0.30030    0.96240    0.95780    1.000
    C60      C        0.31110    0.54970    0.00070    1.000
    H52      H        0.26120    0.47560    0.97440    1.000
    H53      H        0.40770    0.55780    0.99160    1.000
    H54      H        0.31370    0.56570    0.05420    1.000
