# CIF file generated by openbabel 3.1.0, see https://openbabel.org
data_I
_chemical_name_common 'image0'
_cell_length_a 29.2063
_cell_length_b 13.6607
_cell_length_c 13.9294
_cell_angle_alpha 90
_cell_angle_beta 98.291
_cell_angle_gamma 90
_space_group_name_H-M_alt 'P 1'
_space_group_name_Hall 'P 1'
loop_
    _symmetry_equiv_pos_as_xyz
    x,y,z
loop_
    _atom_site_label
    _atom_site_type_symbol
    _atom_site_fract_x
    _atom_site_fract_y
    _atom_site_fract_z
    _atom_site_occupancy
    Eu1      Eu       0.31733    0.29166    0.53680    1.000
    C1       C        0.70769    0.10470    0.23810    1.000
    C2       C        0.73551    0.03840    0.29280    1.000
    H1       H        0.76660    0.03190    0.28590    1.000
    C3       C        0.71631    0.98210    0.35760    1.000
    C4       C        0.67007    0.99200    0.36940    1.000
    H2       H        0.65790    0.95110    0.41280    1.000
    C5       C        0.64184    0.06040    0.31870    1.000
    C6       C        0.66148    0.11520    0.25190    1.000
    H3       H        0.64320    0.16090    0.21450    1.000
    C7       C        0.72727    0.16450    0.16400    1.000
    C8       C        0.74668    0.91090    0.41540    1.000
    C9       C        0.59359    0.07790    0.33890    1.000
    C10      C        0.56440    0.00540    0.36150    1.000
    H4       H        0.57460    0.94090    0.36110    1.000
    C11      C        0.52081    0.02270    0.38490    1.000
    H5       H        0.50250    0.96970    0.39730    1.000
    C12      C        0.50397    0.11370    0.39040    1.000
    C13      C        0.46123    0.13510    0.42370    1.000
    H6       H        0.44290    0.08350    0.43940    1.000
    C14      C        0.44705    0.22390    0.43290    1.000
    C15      C        0.47534    0.29680    0.40670    1.000
    H7       H        0.46590    0.36150    0.41100    1.000
    C16      C        0.51716    0.27870    0.37440    1.000
    H8       H        0.53470    0.33090    0.35700    1.000
    C17      C        0.53287    0.18700    0.36780    1.000
    C18      C        0.57685    0.16630    0.34050    1.000
    H9       H        0.59450    0.21810    0.32290    1.000
    C19      C        0.40306    0.24570    0.47320    1.000
    O1       O        0.70051    0.22611    0.12270    1.000
    O2       O        0.76824    0.14942    0.14994    1.000
    O3       O        0.78994    0.92405    0.43270    1.000
    O4       O        0.72807    0.84039    0.44739    1.000
    O5       O        0.38757    0.32693    0.46600    1.000
    O6       O        0.38272    0.18400    0.51420    1.000
    Eu2      Eu       0.81733    0.79166    0.53680    1.000
    C20      C        0.20769    0.60470    0.23810    1.000
    C21      C        0.23551    0.53840    0.29280    1.000
    H10      H        0.26660    0.53190    0.28590    1.000
    C22      C        0.21631    0.48210    0.35760    1.000
    C23      C        0.17007    0.49200    0.36940    1.000
    H11      H        0.15790    0.45110    0.41280    1.000
    C24      C        0.14184    0.56040    0.31870    1.000
    C25      C        0.16148    0.61520    0.25190    1.000
    H12      H        0.14320    0.66090    0.21450    1.000
    C26      C        0.22727    0.66450    0.16400    1.000
    C27      C        0.24668    0.41090    0.41540    1.000
    C28      C        0.09359    0.57790    0.33890    1.000
    C29      C        0.06440    0.50540    0.36150    1.000
    H13      H        0.07460    0.44090    0.36110    1.000
    C30      C        0.02081    0.52270    0.38490    1.000
    H14      H        0.00250    0.46970    0.39730    1.000
    C31      C        0.00397    0.61370    0.39040    1.000
    C32      C        0.96123    0.63510    0.42370    1.000
    H15      H        0.94290    0.58350    0.43940    1.000
    C33      C        0.94705    0.72390    0.43290    1.000
    C34      C        0.97534    0.79680    0.40670    1.000
    H16      H        0.96590    0.86150    0.41100    1.000
    C35      C        0.01716    0.77870    0.37440    1.000
    H17      H        0.03470    0.83090    0.35700    1.000
    C36      C        0.03287    0.68700    0.36780    1.000
    C37      C        0.07685    0.66630    0.34050    1.000
    H18      H        0.09450    0.71810    0.32290    1.000
    C38      C        0.90306    0.74570    0.47320    1.000
    O7       O        0.20051    0.72611    0.12270    1.000
    O8       O        0.26824    0.64942    0.14994    1.000
    O9       O        0.28994    0.42405    0.43270    1.000
    O10      O        0.22807    0.34039    0.44739    1.000
    O11      O        0.88757    0.82693    0.46600    1.000
    O12      O        0.88272    0.68400    0.51420    1.000
    Eu3      Eu       0.68267    0.29166    0.96320    1.000
    C39      C        0.29231    0.10470    0.26190    1.000
    C40      C        0.26449    0.03840    0.20720    1.000
    H19      H        0.23340    0.03190    0.21410    1.000
    C41      C        0.28369    0.98210    0.14240    1.000
    C42      C        0.32993    0.99200    0.13060    1.000
    H20      H        0.34210    0.95110    0.08720    1.000
    C43      C        0.35816    0.06040    0.18130    1.000
    C44      C        0.33852    0.11520    0.24810    1.000
    H21      H        0.35680    0.16090    0.28550    1.000
    C45      C        0.27273    0.16450    0.33600    1.000
    C46      C        0.25332    0.91090    0.08460    1.000
    C47      C        0.40641    0.07790    0.16110    1.000
    C48      C        0.43560    0.00540    0.13850    1.000
    H22      H        0.42540    0.94090    0.13890    1.000
    C49      C        0.47919    0.02270    0.11510    1.000
    H23      H        0.49750    0.96970    0.10270    1.000
    C50      C        0.49603    0.11370    0.10960    1.000
    C51      C        0.53877    0.13510    0.07630    1.000
    H24      H        0.55710    0.08350    0.06060    1.000
    C52      C        0.55295    0.22390    0.06710    1.000
    C53      C        0.52466    0.29680    0.09330    1.000
    H25      H        0.53410    0.36150    0.08900    1.000
    C54      C        0.48284    0.27870    0.12560    1.000
    H26      H        0.46530    0.33090    0.14300    1.000
    C55      C        0.46713    0.18700    0.13220    1.000
    C56      C        0.42315    0.16630    0.15950    1.000
    H27      H        0.40550    0.21810    0.17710    1.000
    C57      C        0.59694    0.24570    0.02680    1.000
    O13      O        0.29949    0.22611    0.37730    1.000
    O14      O        0.23176    0.14942    0.35006    1.000
    O15      O        0.21006    0.92405    0.06730    1.000
    O16      O        0.27193    0.84039    0.05261    1.000
    O17      O        0.61243    0.32693    0.03400    1.000
    O18      O        0.61728    0.18400    0.98580    1.000
    Eu4      Eu       0.18267    0.79166    0.96320    1.000
    C58      C        0.79231    0.60470    0.26190    1.000
    C59      C        0.76449    0.53840    0.20720    1.000
    H28      H        0.73340    0.53190    0.21410    1.000
    C60      C        0.78369    0.48210    0.14240    1.000
    C61      C        0.82993    0.49200    0.13060    1.000
    H29      H        0.84210    0.45110    0.08720    1.000
    C62      C        0.85816    0.56040    0.18130    1.000
    C63      C        0.83852    0.61520    0.24810    1.000
    H30      H        0.85680    0.66090    0.28550    1.000
    C64      C        0.77273    0.66450    0.33600    1.000
    C65      C        0.75332    0.41090    0.08460    1.000
    C66      C        0.90641    0.57790    0.16110    1.000
    C67      C        0.93560    0.50540    0.13850    1.000
    H31      H        0.92540    0.44090    0.13890    1.000
    C68      C        0.97919    0.52270    0.11510    1.000
    H32      H        0.99750    0.46970    0.10270    1.000
    C69      C        0.99603    0.61370    0.10960    1.000
    C70      C        0.03877    0.63510    0.07630    1.000
    H33      H        0.05710    0.58350    0.06060    1.000
    C71      C        0.05295    0.72390    0.06710    1.000
    C72      C        0.02466    0.79680    0.09330    1.000
    H34      H        0.03410    0.86150    0.08900    1.000
    C73      C        0.98284    0.77870    0.12560    1.000
    H35      H        0.96530    0.83090    0.14300    1.000
    C74      C        0.96713    0.68700    0.13220    1.000
    C75      C        0.92315    0.66630    0.15950    1.000
    H36      H        0.90550    0.71810    0.17710    1.000
    C76      C        0.09694    0.74570    0.02680    1.000
    O19      O        0.79949    0.72611    0.37730    1.000
    O20      O        0.73176    0.64942    0.35006    1.000
    O21      O        0.71006    0.42405    0.06730    1.000
    O22      O        0.77193    0.34039    0.05261    1.000
    O23      O        0.11243    0.82693    0.03400    1.000
    O24      O        0.11728    0.68400    0.98580    1.000
    Eu5      Eu       0.68267    0.70835    0.46320    1.000
    C77      C        0.29231    0.89530    0.76190    1.000
    C78      C        0.26449    0.96160    0.70720    1.000
    H37      H        0.23340    0.96810    0.71410    1.000
    C79      C        0.28369    0.01790    0.64240    1.000
    C80      C        0.32993    0.00800    0.63060    1.000
    H38      H        0.34210    0.04890    0.58720    1.000
    C81      C        0.35816    0.93960    0.68130    1.000
    C82      C        0.33852    0.88480    0.74810    1.000
    H39      H        0.35680    0.83910    0.78550    1.000
    C83      C        0.27273    0.83550    0.83600    1.000
    C84      C        0.25332    0.08910    0.58460    1.000
    C85      C        0.40641    0.92210    0.66110    1.000
    C86      C        0.43560    0.99460    0.63850    1.000
    H40      H        0.42540    0.05910    0.63890    1.000
    C87      C        0.47919    0.97730    0.61510    1.000
    H41      H        0.49750    0.03030    0.60270    1.000
    C88      C        0.49603    0.88630    0.60960    1.000
    C89      C        0.53877    0.86490    0.57630    1.000
    H42      H        0.55710    0.91650    0.56060    1.000
    C90      C        0.55295    0.77610    0.56710    1.000
    C91      C        0.52466    0.70320    0.59330    1.000
    H43      H        0.53410    0.63850    0.58900    1.000
    C92      C        0.48284    0.72130    0.62560    1.000
    H44      H        0.46530    0.66910    0.64300    1.000
    C93      C        0.46713    0.81300    0.63220    1.000
    C94      C        0.42315    0.83370    0.65950    1.000
    H45      H        0.40550    0.78190    0.67710    1.000
    C95      C        0.59694    0.75430    0.52680    1.000
    O25      O        0.29949    0.77389    0.87730    1.000
    O26      O        0.23176    0.85058    0.85006    1.000
    O27      O        0.21006    0.07595    0.56730    1.000
    O28      O        0.27193    0.15961    0.55261    1.000
    O29      O        0.61243    0.67307    0.53400    1.000
    O30      O        0.61728    0.81600    0.48580    1.000
    Eu6      Eu       0.18267    0.20835    0.46320    1.000
    C96      C        0.79231    0.39530    0.76190    1.000
    C97      C        0.76449    0.46160    0.70720    1.000
    H46      H        0.73340    0.46810    0.71410    1.000
    C98      C        0.78369    0.51790    0.64240    1.000
    C99      C        0.82993    0.50800    0.63060    1.000
    H47      H        0.84210    0.54890    0.58720    1.000
    C100     C        0.85816    0.43960    0.68130    1.000
    C101     C        0.83852    0.38480    0.74810    1.000
    H48      H        0.85680    0.33910    0.78550    1.000
    C102     C        0.77273    0.33550    0.83600    1.000
    C103     C        0.75332    0.58910    0.58460    1.000
    C104     C        0.90641    0.42210    0.66110    1.000
    C105     C        0.93560    0.49460    0.63850    1.000
    H49      H        0.92540    0.55910    0.63890    1.000
    C106     C        0.97919    0.47730    0.61510    1.000
    H50      H        0.99750    0.53030    0.60270    1.000
    C107     C        0.99603    0.38630    0.60960    1.000
    C108     C        0.03877    0.36490    0.57630    1.000
    H51      H        0.05710    0.41650    0.56060    1.000
    C109     C        0.05295    0.27610    0.56710    1.000
    C110     C        0.02466    0.20320    0.59330    1.000
    H52      H        0.03410    0.13850    0.58900    1.000
    C111     C        0.98284    0.22130    0.62560    1.000
    H53      H        0.96530    0.16910    0.64300    1.000
    C112     C        0.96713    0.31300    0.63220    1.000
    C113     C        0.92315    0.33370    0.65950    1.000
    H54      H        0.90550    0.28190    0.67710    1.000
    C114     C        0.09694    0.25430    0.52680    1.000
    O31      O        0.79949    0.27389    0.87730    1.000
    O32      O        0.73176    0.35058    0.85006    1.000
    O33      O        0.71006    0.57595    0.56730    1.000
    O34      O        0.77193    0.65961    0.55261    1.000
    O35      O        0.11243    0.17307    0.53400    1.000
    O36      O        0.11728    0.31600    0.48580    1.000
    Eu7      Eu       0.31733    0.70835    0.03680    1.000
    C115     C        0.70769    0.89530    0.73810    1.000
    C116     C        0.73551    0.96160    0.79280    1.000
    H55      H        0.76660    0.96810    0.78590    1.000
    C117     C        0.71631    0.01790    0.85760    1.000
    C118     C        0.67007    0.00800    0.86940    1.000
    H56      H        0.65790    0.04890    0.91280    1.000
    C119     C        0.64184    0.93960    0.81870    1.000
    C120     C        0.66148    0.88480    0.75190    1.000
    H57      H        0.64320    0.83910    0.71450    1.000
    C121     C        0.72727    0.83550    0.66400    1.000
    C122     C        0.74668    0.08910    0.91540    1.000
    C123     C        0.59359    0.92210    0.83890    1.000
    C124     C        0.56440    0.99460    0.86150    1.000
    H58      H        0.57460    0.05910    0.86110    1.000
    C125     C        0.52081    0.97730    0.88490    1.000
    H59      H        0.50250    0.03030    0.89730    1.000
    C126     C        0.50397    0.88630    0.89040    1.000
    C127     C        0.46123    0.86490    0.92370    1.000
    H60      H        0.44290    0.91650    0.93940    1.000
    C128     C        0.44705    0.77610    0.93290    1.000
    C129     C        0.47534    0.70320    0.90670    1.000
    H61      H        0.46590    0.63850    0.91100    1.000
    C130     C        0.51716    0.72130    0.87440    1.000
    H62      H        0.53470    0.66910    0.85700    1.000
    C131     C        0.53287    0.81300    0.86780    1.000
    C132     C        0.57685    0.83370    0.84050    1.000
    H63      H        0.59450    0.78190    0.82290    1.000
    C133     C        0.40306    0.75430    0.97320    1.000
    O37      O        0.70051    0.77389    0.62270    1.000
    O38      O        0.76824    0.85058    0.64994    1.000
    O39      O        0.78994    0.07595    0.93270    1.000
    O40      O        0.72807    0.15961    0.94739    1.000
    O41      O        0.38757    0.67307    0.96600    1.000
    O42      O        0.38272    0.81600    0.01420    1.000
    Eu8      Eu       0.81733    0.20835    0.03680    1.000
    C134     C        0.20769    0.39530    0.73810    1.000
    C135     C        0.23551    0.46160    0.79280    1.000
    H64      H        0.26660    0.46810    0.78590    1.000
    C136     C        0.21631    0.51790    0.85760    1.000
    C137     C        0.17007    0.50800    0.86940    1.000
    H65      H        0.15790    0.54890    0.91280    1.000
    C138     C        0.14184    0.43960    0.81870    1.000
    C139     C        0.16148    0.38480    0.75190    1.000
    H66      H        0.14320    0.33910    0.71450    1.000
    C140     C        0.22727    0.33550    0.66400    1.000
    C141     C        0.24668    0.58910    0.91540    1.000
    C142     C        0.09359    0.42210    0.83890    1.000
    C143     C        0.06440    0.49460    0.86150    1.000
    H67      H        0.07460    0.55910    0.86110    1.000
    C144     C        0.02081    0.47730    0.88490    1.000
    H68      H        0.00250    0.53030    0.89730    1.000
    C145     C        0.00397    0.38630    0.89040    1.000
    C146     C        0.96123    0.36490    0.92370    1.000
    H69      H        0.94290    0.41650    0.93940    1.000
    C147     C        0.94705    0.27610    0.93290    1.000
    C148     C        0.97534    0.20320    0.90670    1.000
    H70      H        0.96590    0.13850    0.91100    1.000
    C149     C        0.01716    0.22130    0.87440    1.000
    H71      H        0.03470    0.16910    0.85700    1.000
    C150     C        0.03287    0.31300    0.86780    1.000
    C151     C        0.07685    0.33370    0.84050    1.000
    H72      H        0.09450    0.28190    0.82290    1.000
    C152     C        0.90306    0.25430    0.97320    1.000
    O43      O        0.20051    0.27389    0.62270    1.000
    O44      O        0.26824    0.35058    0.64994    1.000
    O45      O        0.28994    0.57595    0.93270    1.000
    O46      O        0.22807    0.65961    0.94739    1.000
    O47      O        0.88757    0.17307    0.96600    1.000
    O48      O        0.88272    0.31600    0.01420    1.000
