# CIF file generated by openbabel 3.1.0, see https://openbabel.org
data_I
_chemical_name_common 'image0'
_cell_length_a 10.8546
_cell_length_b 23.6261
_cell_length_c 9.6799
_cell_angle_alpha 90
_cell_angle_beta 104.14
_cell_angle_gamma 90
_space_group_name_H-M_alt 'P 1'
_space_group_name_Hall 'P 1'
loop_
    _symmetry_equiv_pos_as_xyz
    x,y,z
loop_
    _atom_site_label
    _atom_site_type_symbol
    _atom_site_fract_x
    _atom_site_fract_y
    _atom_site_fract_z
    _atom_site_occupancy
    Cd1      Cd       0.31934    0.10554    0.47238    1.000
    O1       O        0.16405    0.04458    0.36101    1.000
    O2       O        0.23175    0.09961    0.21045    1.000
    C1       C        0.16382    0.06030    0.23581    1.000
    C2       C        0.07842    0.02922    0.11325    1.000
    C3       C        0.98632    0.99202    0.13789    1.000
    H1       H        0.97690    0.98660    0.23200    1.000
    C4       C        0.09155    0.03711    0.97468    1.000
    H2       H        0.15400    0.06250    0.95740    1.000
    O3       O        0.42350    0.03360    0.61964    1.000
    O4       O        0.33006    0.09829    0.72234    1.000
    C5       C        0.39694    0.05461    0.72827    1.000
    C6       C        0.44928    0.02613    0.86914    1.000
    C7       C        0.52082    0.97671    0.87554    1.000
    H3       H        0.53520    0.96090    0.79060    1.000
    C8       C        0.42909    0.04940    0.99476    1.000
    H4       H        0.38090    0.08320    0.99110    1.000
    N1       N        0.51175    0.12191    0.43047    1.000
    N2       N        0.70227    0.10050    0.40508    1.000
    N3       N        0.12782    0.22991    0.91998    1.000
    N4       N        0.24848    0.30551    0.96919    1.000
    C9       C        0.60985    0.08712    0.46913    1.000
    H5       H        0.61410    0.05660    0.53400    1.000
    C10      C        0.54424    0.15923    0.33620    1.000
    H6       H        0.49210    0.18920    0.28950    1.000
    C11      C        0.66168    0.14680    0.31990    1.000
    H7       H        0.70680    0.16610    0.26160    1.000
    C12      C        0.82476    0.07157    0.42520    1.000
    H8       H        0.83570    0.05860    0.33170    1.000
    H9       H        0.82550    0.03780    0.48600    1.000
    C13      C        0.93461    0.11011    0.49420    1.000
    H10      H        0.93920    0.14160    0.42800    1.000
    H11      H        0.01490    0.08840    0.50960    1.000
    C14      C        0.92315    0.13472    0.63587    1.000
    H12      H        0.91060    0.10350    0.69920    1.000
    H13      H        0.84730    0.15940    0.61930    1.000
    C15      C        0.04011    0.16894    0.71030    1.000
    H14      H        0.11600    0.14420    0.73010    1.000
    H15      H        0.05410    0.20000    0.64710    1.000
    C16      C        0.02212    0.19343    0.84870    1.000
    H16      H        0.94240    0.21560    0.82890    1.000
    H17      H        0.01350    0.16210    0.91350    1.000
    C17      C        0.22376    0.21661    0.03660    1.000
    H18      H        0.23650    0.18160    0.08610    1.000
    C18      C        0.29645    0.26368    0.06660    1.000
    H19      H        0.36970    0.26730    0.14330    1.000
    C19      C        0.14675    0.28339    0.88283    1.000
    H20      H        0.09370    0.30280    0.80450    1.000
    Cd2      Cd       0.68066    0.60554    0.02762    1.000
    O5       O        0.83595    0.54458    0.13899    1.000
    O6       O        0.76825    0.59961    0.28955    1.000
    C20      C        0.83618    0.56030    0.26419    1.000
    C21      C        0.92158    0.52922    0.38675    1.000
    C22      C        0.01368    0.49202    0.36211    1.000
    H21      H        0.02310    0.48660    0.26800    1.000
    C23      C        0.90845    0.53711    0.52532    1.000
    H22      H        0.84600    0.56250    0.54260    1.000
    O7       O        0.57650    0.53360    0.88036    1.000
    O8       O        0.66994    0.59829    0.77766    1.000
    C24      C        0.60306    0.55461    0.77173    1.000
    C25      C        0.55072    0.52613    0.63086    1.000
    C26      C        0.47918    0.47671    0.62446    1.000
    H23      H        0.46480    0.46090    0.70940    1.000
    C27      C        0.57091    0.54940    0.50524    1.000
    H24      H        0.61910    0.58320    0.50890    1.000
    N5       N        0.48825    0.62191    0.06953    1.000
    N6       N        0.29773    0.60050    0.09492    1.000
    N7       N        0.87218    0.72991    0.58002    1.000
    N8       N        0.75152    0.80551    0.53081    1.000
    C28      C        0.39015    0.58712    0.03087    1.000
    H25      H        0.38590    0.55660    0.96600    1.000
    C29      C        0.45576    0.65923    0.16380    1.000
    H26      H        0.50790    0.68920    0.21050    1.000
    C30      C        0.33832    0.64680    0.18010    1.000
    H27      H        0.29320    0.66610    0.23840    1.000
    C31      C        0.17524    0.57157    0.07480    1.000
    H28      H        0.16430    0.55860    0.16830    1.000
    H29      H        0.17450    0.53780    0.01400    1.000
    C32      C        0.06539    0.61011    0.00580    1.000
    H30      H        0.06080    0.64160    0.07200    1.000
    H31      H        0.98510    0.58840    0.99040    1.000
    C33      C        0.07685    0.63472    0.86413    1.000
    H32      H        0.08940    0.60350    0.80080    1.000
    H33      H        0.15270    0.65940    0.88070    1.000
    C34      C        0.95989    0.66894    0.78970    1.000
    H34      H        0.88400    0.64420    0.76990    1.000
    H35      H        0.94590    0.70000    0.85290    1.000
    C35      C        0.97788    0.69343    0.65130    1.000
    H36      H        0.05760    0.71560    0.67110    1.000
    H37      H        0.98650    0.66210    0.58650    1.000
    C36      C        0.77624    0.71661    0.46340    1.000
    H38      H        0.76350    0.68160    0.41390    1.000
    C37      C        0.70355    0.76368    0.43340    1.000
    H39      H        0.63030    0.76730    0.35670    1.000
    C38      C        0.85325    0.78339    0.61717    1.000
    H40      H        0.90630    0.80280    0.69550    1.000
    Cd3      Cd       0.68066    0.89446    0.52762    1.000
    O9       O        0.83595    0.95542    0.63899    1.000
    O10      O        0.76825    0.90039    0.78955    1.000
    C39      C        0.83618    0.93970    0.76419    1.000
    C40      C        0.92158    0.97078    0.88675    1.000
    C41      C        0.01368    0.00798    0.86211    1.000
    H41      H        0.02310    0.01340    0.76800    1.000
    C42      C        0.90845    0.96289    0.02532    1.000
    H42      H        0.84600    0.93750    0.04260    1.000
    O11      O        0.57650    0.96640    0.38036    1.000
    O12      O        0.66994    0.90171    0.27766    1.000
    C43      C        0.60306    0.94539    0.27173    1.000
    C44      C        0.55072    0.97387    0.13086    1.000
    C45      C        0.47918    0.02329    0.12446    1.000
    H43      H        0.46480    0.03910    0.20940    1.000
    C46      C        0.57091    0.95060    0.00524    1.000
    H44      H        0.61910    0.91680    0.00890    1.000
    N9       N        0.48825    0.87809    0.56953    1.000
    N10      N        0.29773    0.89950    0.59492    1.000
    N11      N        0.87218    0.77009    0.08002    1.000
    N12      N        0.75152    0.69449    0.03081    1.000
    C47      C        0.39015    0.91288    0.53087    1.000
    H45      H        0.38590    0.94340    0.46600    1.000
    C48      C        0.45576    0.84077    0.66380    1.000
    H46      H        0.50790    0.81080    0.71050    1.000
    C49      C        0.33832    0.85320    0.68010    1.000
    H47      H        0.29320    0.83390    0.73840    1.000
    C50      C        0.17524    0.92843    0.57480    1.000
    H48      H        0.16430    0.94140    0.66830    1.000
    H49      H        0.17450    0.96220    0.51400    1.000
    C51      C        0.06539    0.88989    0.50580    1.000
    H50      H        0.06080    0.85840    0.57200    1.000
    H51      H        0.98510    0.91160    0.49040    1.000
    C52      C        0.07685    0.86528    0.36413    1.000
    H52      H        0.08940    0.89650    0.30080    1.000
    H53      H        0.15270    0.84060    0.38070    1.000
    C53      C        0.95989    0.83106    0.28970    1.000
    H54      H        0.88400    0.85580    0.26990    1.000
    H55      H        0.94590    0.80000    0.35290    1.000
    C54      C        0.97788    0.80657    0.15130    1.000
    H56      H        0.05760    0.78440    0.17110    1.000
    H57      H        0.98650    0.83790    0.08650    1.000
    C55      C        0.77624    0.78339    0.96340    1.000
    H58      H        0.76350    0.81840    0.91390    1.000
    C56      C        0.70355    0.73632    0.93340    1.000
    H59      H        0.63030    0.73270    0.85670    1.000
    C57      C        0.85325    0.71661    0.11717    1.000
    H60      H        0.90630    0.69720    0.19550    1.000
    Cd4      Cd       0.31934    0.39446    0.97238    1.000
    O13      O        0.16405    0.45542    0.86101    1.000
    O14      O        0.23175    0.40039    0.71045    1.000
    C58      C        0.16382    0.43970    0.73581    1.000
    C59      C        0.07842    0.47078    0.61325    1.000
    C60      C        0.98632    0.50798    0.63789    1.000
    H61      H        0.97690    0.51340    0.73200    1.000
    C61      C        0.09155    0.46289    0.47468    1.000
    H62      H        0.15400    0.43750    0.45740    1.000
    O15      O        0.42350    0.46640    0.11964    1.000
    O16      O        0.33006    0.40171    0.22234    1.000
    C62      C        0.39694    0.44539    0.22827    1.000
    C63      C        0.44928    0.47387    0.36914    1.000
    C64      C        0.52082    0.52329    0.37554    1.000
    H63      H        0.53520    0.53910    0.29060    1.000
    C65      C        0.42909    0.45060    0.49476    1.000
    H64      H        0.38090    0.41680    0.49110    1.000
    N13      N        0.51175    0.37809    0.93047    1.000
    N14      N        0.70227    0.39950    0.90508    1.000
    N15      N        0.12782    0.27009    0.41998    1.000
    N16      N        0.24848    0.19449    0.46919    1.000
    C66      C        0.60985    0.41288    0.96913    1.000
    H65      H        0.61410    0.44340    0.03400    1.000
    C67      C        0.54424    0.34077    0.83620    1.000
    H66      H        0.49210    0.31080    0.78950    1.000
    C68      C        0.66168    0.35320    0.81990    1.000
    H67      H        0.70680    0.33390    0.76160    1.000
    C69      C        0.82476    0.42843    0.92520    1.000
    H68      H        0.83570    0.44140    0.83170    1.000
    H69      H        0.82550    0.46220    0.98600    1.000
    C70      C        0.93461    0.38989    0.99420    1.000
    H70      H        0.93920    0.35840    0.92800    1.000
    H71      H        0.01490    0.41160    0.00960    1.000
    C71      C        0.92315    0.36528    0.13587    1.000
    H72      H        0.91060    0.39650    0.19920    1.000
    H73      H        0.84730    0.34060    0.11930    1.000
    C72      C        0.04011    0.33106    0.21030    1.000
    H74      H        0.11600    0.35580    0.23010    1.000
    H75      H        0.05410    0.30000    0.14710    1.000
    C73      C        0.02212    0.30657    0.34870    1.000
    H76      H        0.94240    0.28440    0.32890    1.000
    H77      H        0.01350    0.33790    0.41350    1.000
    C74      C        0.22376    0.28339    0.53660    1.000
    H78      H        0.23650    0.31840    0.58610    1.000
    C75      C        0.29645    0.23632    0.56660    1.000
    H79      H        0.36970    0.23270    0.64330    1.000
    C76      C        0.14675    0.21661    0.38283    1.000
    H80      H        0.09370    0.19720    0.30450    1.000
