# CIF file generated by openbabel 3.1.0, see https://openbabel.org
data_I
_chemical_name_common 'image0'
_cell_length_a 14.8967
_cell_length_b 14.8967
_cell_length_c 10.0502
_cell_angle_alpha 90
_cell_angle_beta 90
_cell_angle_gamma 90
_space_group_name_H-M_alt 'P 1'
_space_group_name_Hall 'P 1'
loop_
    _symmetry_equiv_pos_as_xyz
    x,y,z
loop_
    _atom_site_label
    _atom_site_type_symbol
    _atom_site_fract_x
    _atom_site_fract_y
    _atom_site_fract_z
    _atom_site_occupancy
    O1       O        0.41410    0.10010    0.14460    1.000
    C1       C        0.42140    0.14470    0.25210    1.000
    O2       O        0.43690    0.22580    0.25180    1.000
    C2       C        0.40820    0.09610    0.37880    1.000
    C3       C        0.38130    0.00640    0.38150    1.000
    H1       H        0.37300    0.97570    0.29960    1.000
    C4       C        0.28240    0.83480    0.39810    1.000
    C5       C        0.24870    0.74980    0.40100    1.000
    C6       C        0.31230    0.72270    0.39580    1.000
    H2       H        0.71560    0.26740    0.09180    1.000
    H3       H        0.70040    0.31300    0.94940    1.000
    H4       H        0.73420    0.21120    0.95890    1.000
    C7       C        0.34830    0.80840    0.39100    1.000
    O3       O        0.58590    0.89990    0.14460    1.000
    C8       C        0.57860    0.85530    0.25210    1.000
    O4       O        0.56310    0.77420    0.25180    1.000
    C9       C        0.59180    0.90390    0.37880    1.000
    C10      C        0.61870    0.99360    0.38150    1.000
    H5       H        0.62700    0.02430    0.29960    1.000
    C11      C        0.71760    0.16520    0.39810    1.000
    C12      C        0.75130    0.25020    0.40100    1.000
    C13      C        0.68770    0.27730    0.39580    1.000
    H6       H        0.28440    0.73260    0.09180    1.000
    H7       H        0.29960    0.68700    0.94940    1.000
    H8       H        0.26580    0.78880    0.95890    1.000
    C14      C        0.65170    0.19160    0.39100    1.000
    O5       O        0.89990    0.41410    0.64460    1.000
    C15      C        0.85530    0.42140    0.75210    1.000
    O6       O        0.77420    0.43690    0.75180    1.000
    C16      C        0.90390    0.40820    0.87880    1.000
    C17      C        0.99360    0.38130    0.88150    1.000
    H9       H        0.02430    0.37300    0.79960    1.000
    C18      C        0.16520    0.28240    0.89810    1.000
    C19      C        0.25020    0.24870    0.90100    1.000
    C20      C        0.27730    0.31230    0.89580    1.000
    H10      H        0.73260    0.71560    0.59180    1.000
    H11      H        0.68700    0.70040    0.44940    1.000
    H12      H        0.78880    0.73420    0.45890    1.000
    C21      C        0.19160    0.34830    0.89100    1.000
    O7       O        0.10010    0.58590    0.64460    1.000
    C22      C        0.14470    0.57860    0.75210    1.000
    O8       O        0.22580    0.56310    0.75180    1.000
    C23      C        0.09610    0.59180    0.87880    1.000
    C24      C        0.00640    0.61870    0.88150    1.000
    H13      H        0.97570    0.62700    0.79960    1.000
    C25      C        0.83480    0.71760    0.89810    1.000
    C26      C        0.74980    0.75130    0.90100    1.000
    C27      C        0.72270    0.68770    0.89580    1.000
    H14      H        0.26740    0.28440    0.59180    1.000
    H15      H        0.31300    0.29960    0.44940    1.000
    H16      H        0.21120    0.26580    0.45890    1.000
    C28      C        0.80840    0.65170    0.89100    1.000
    O9       O        0.58590    0.89990    0.85540    1.000
    C29      C        0.57860    0.85530    0.74790    1.000
    O10      O        0.56310    0.77420    0.74820    1.000
    C30      C        0.59180    0.90390    0.62120    1.000
    C31      C        0.61870    0.99360    0.61850    1.000
    H17      H        0.62700    0.02430    0.70040    1.000
    C32      C        0.71760    0.16520    0.60190    1.000
    C33      C        0.75130    0.25020    0.59900    1.000
    C34      C        0.68770    0.27730    0.60420    1.000
    H18      H        0.28440    0.73260    0.90820    1.000
    H19      H        0.29960    0.68700    0.05060    1.000
    H20      H        0.26580    0.78880    0.04110    1.000
    C35      C        0.65170    0.19160    0.60900    1.000
    O11      O        0.41410    0.10010    0.85540    1.000
    C36      C        0.42140    0.14470    0.74790    1.000
    O12      O        0.43690    0.22580    0.74820    1.000
    C37      C        0.40820    0.09610    0.62120    1.000
    C38      C        0.38130    0.00640    0.61850    1.000
    H21      H        0.37300    0.97570    0.70040    1.000
    C39      C        0.28240    0.83480    0.60190    1.000
    C40      C        0.24870    0.74980    0.59900    1.000
    C41      C        0.31230    0.72270    0.60420    1.000
    H22      H        0.71560    0.26740    0.90820    1.000
    H23      H        0.70040    0.31300    0.05060    1.000
    H24      H        0.73420    0.21120    0.04110    1.000
    C42      C        0.34830    0.80840    0.60900    1.000
    O13      O        0.10010    0.58590    0.35540    1.000
    C43      C        0.14470    0.57860    0.24790    1.000
    O14      O        0.22580    0.56310    0.24820    1.000
    C44      C        0.09610    0.59180    0.12120    1.000
    C45      C        0.00640    0.61870    0.11850    1.000
    H25      H        0.97570    0.62700    0.20040    1.000
    C46      C        0.83480    0.71760    0.10190    1.000
    C47      C        0.74980    0.75130    0.09900    1.000
    C48      C        0.72270    0.68770    0.10420    1.000
    H26      H        0.26740    0.28440    0.40820    1.000
    H27      H        0.31300    0.29960    0.55060    1.000
    H28      H        0.21120    0.26580    0.54110    1.000
    C49      C        0.80840    0.65170    0.10900    1.000
    O15      O        0.89990    0.41410    0.35540    1.000
    C50      C        0.85530    0.42140    0.24790    1.000
    O16      O        0.77420    0.43690    0.24820    1.000
    C51      C        0.90390    0.40820    0.12120    1.000
    C52      C        0.99360    0.38130    0.11850    1.000
    H29      H        0.02430    0.37300    0.20040    1.000
    C53      C        0.16520    0.28240    0.10190    1.000
    C54      C        0.25020    0.24870    0.09900    1.000
    C55      C        0.27730    0.31230    0.10420    1.000
    H30      H        0.73260    0.71560    0.40820    1.000
    H31      H        0.68700    0.70040    0.55060    1.000
    H32      H        0.78880    0.73420    0.54110    1.000
    C56      C        0.19160    0.34830    0.10900    1.000
    Co1      Co       0.43244    0.19685    0.00000    1.000
    O17      O        0.58310    0.14390    0.00000    1.000
    O18      O        0.53730    0.28460    0.00000    1.000
    N1       N        0.30820    0.26220    0.00000    1.000
    C57      C        0.59980    0.22510    0.00000    1.000
    C58      C        0.69590    0.25700    0.00000    1.000
    Co2      Co       0.56756    0.80315    0.00000    1.000
    O19      O        0.41690    0.85610    0.00000    1.000
    O20      O        0.46270    0.71540    0.00000    1.000
    N2       N        0.69180    0.73780    0.00000    1.000
    C59      C        0.40020    0.77490    0.00000    1.000
    C60      C        0.30410    0.74300    0.00000    1.000
    Co3      Co       0.80315    0.43244    0.50000    1.000
    O21      O        0.85610    0.58310    0.50000    1.000
    O22      O        0.71540    0.53730    0.50000    1.000
    N3       N        0.73780    0.30820    0.50000    1.000
    C61      C        0.77490    0.59980    0.50000    1.000
    C62      C        0.74300    0.69590    0.50000    1.000
    Co4      Co       0.19685    0.56756    0.50000    1.000
    O23      O        0.14390    0.41690    0.50000    1.000
    O24      O        0.28460    0.46270    0.50000    1.000
    N4       N        0.26220    0.69180    0.50000    1.000
    C63      C        0.22510    0.40020    0.50000    1.000
    C64      C        0.25700    0.30410    0.50000    1.000
    Na1      Na       0.50000    0.00000    0.00000    1.000
    Na2      Na       0.00000    0.50000    0.50000    1.000
    C65      C        0.42230    0.13930    0.50000    1.000
    H33      H        0.44220    0.19990    0.50000    1.000
    C66      C        0.36630    0.96020    0.50000    1.000
    C67      C        0.33300    0.86620    0.50000    1.000
    C68      C        0.57770    0.86070    0.50000    1.000
    H34      H        0.55780    0.80010    0.50000    1.000
    C69      C        0.63370    0.03980    0.50000    1.000
    C70      C        0.66700    0.13380    0.50000    1.000
    C71      C        0.86070    0.42230    0.00000    1.000
    H35      H        0.80010    0.44220    0.00000    1.000
    C72      C        0.03980    0.36630    0.00000    1.000
    C73      C        0.13380    0.33300    0.00000    1.000
    C74      C        0.13930    0.57770    0.00000    1.000
    H36      H        0.19990    0.55780    0.00000    1.000
    C75      C        0.96020    0.63370    0.00000    1.000
    C76      C        0.86620    0.66700    0.00000    1.000
