# CIF file generated by openbabel 3.1.0, see https://openbabel.org
data_I
_chemical_name_common 'PEYPAM_clean'
_cell_length_a 19.5078
_cell_length_b 19.5078
_cell_length_c 13.815
_cell_angle_alpha 90
_cell_angle_beta 90
_cell_angle_gamma 90
_space_group_name_H-M_alt 'P 1'
_space_group_name_Hall 'P 1'
loop_
    _symmetry_equiv_pos_as_xyz
    x,y,z
loop_
    _atom_site_label
    _atom_site_type_symbol
    _atom_site_fract_x
    _atom_site_fract_y
    _atom_site_fract_z
    _atom_site_occupancy
    Zn1      Zn       0.98740    0.47007    0.37155    1.000
    H2       H        0.92840    0.16170    0.58270    1.000
    H3       H        0.91310    0.27130    0.63230    1.000
    H4       H        0.67620    0.41060    0.38620    1.000
    H5       H        0.67140    0.49220    0.39870    1.000
    H6       H        0.07824    0.31468    0.28288    1.000
    H7       H        0.73500    0.48400    0.97190    1.000
    H8       H        0.83910    0.47880    0.03760    1.000
    C9       C        0.95630    0.39060    0.56230    1.000
    C10      C        0.88780    0.47990    0.21680    1.000
    C11      C        0.96630    0.11210    0.40970    1.000
    C12      C        0.97300    0.24150    0.38570    1.000
    C13      C        0.95930    0.18330    0.44260    1.000
    C14      C        0.97040    0.30650    0.42310    1.000
    C15      C        0.93830    0.19820    0.53940    1.000
    C16      C        0.95210    0.32080    0.51870    1.000
    C17      C        0.93240    0.26400    0.57010    1.000
    C18      C        0.81460    0.47780    0.17880    1.000
    C19      C        0.69220    0.47000    0.19610    1.000
    C20      C        0.68530    0.45500    0.35400    1.000
    C21      C        0.67970    0.47630    0.09950    1.000
    C22      C        0.60980    0.48020    0.05710    1.000
    C23      C        0.75890    0.47020    0.23800    1.000
    C24      C        0.02020    0.31540    0.27330    1.000
    C25      C        0.73940    0.48030    0.04020    1.000
    C26      C        0.80080    0.47900    0.08010    1.000
    O27      O        0.96344    0.44309    0.50780    1.000
    O28      O        0.98700    0.35341    0.35220    1.000
    O29      O        0.89824    0.47010    0.30280    1.000
    O30      O        0.93175    0.49270    0.15420    1.000
    O31      O        0.55771    0.46799    0.11020    1.000
    O32      O        0.95700    0.06824    0.47060    1.000
    O33      O        0.98990    0.24476    0.29010    1.000
    O34      O        0.75493    0.46070    0.33260    1.000
    O35      O        0.60290    0.49150    0.96990    1.000
    O36      O        0.64693    0.45940    0.26720    1.000
    O37      O        0.97830    0.10145    0.32090    1.000
    O38      O        0.94710    0.39810    0.64870    1.000
    H39      H        0.49457    0.83926    0.54908    1.000
    Zn40     Zn       0.01260    0.52993    0.87155    1.000
    H41      H        0.07160    0.83830    0.08270    1.000
    H42      H        0.08690    0.72870    0.13230    1.000
    H43      H        0.32380    0.58940    0.88620    1.000
    H44      H        0.32860    0.50780    0.89870    1.000
    H45      H        0.92176    0.68532    0.78288    1.000
    H46      H        0.26500    0.51600    0.47190    1.000
    H47      H        0.16090    0.52120    0.53760    1.000
    C48      C        0.04370    0.60940    0.06230    1.000
    C49      C        0.11220    0.52010    0.71680    1.000
    C50      C        0.03370    0.88790    0.90970    1.000
    C51      C        0.02700    0.75850    0.88570    1.000
    C52      C        0.04070    0.81670    0.94260    1.000
    C53      C        0.02960    0.69350    0.92310    1.000
    C54      C        0.06170    0.80180    0.03940    1.000
    C55      C        0.04790    0.67920    0.01870    1.000
    C56      C        0.06760    0.73600    0.07010    1.000
    C57      C        0.18540    0.52220    0.67880    1.000
    C58      C        0.30780    0.53000    0.69610    1.000
    C59      C        0.31470    0.54500    0.85400    1.000
    C60      C        0.32030    0.52370    0.59950    1.000
    C61      C        0.39020    0.51980    0.55710    1.000
    C62      C        0.24110    0.52980    0.73800    1.000
    C63      C        0.97980    0.68460    0.77330    1.000
    C64      C        0.26060    0.51970    0.54020    1.000
    C65      C        0.19920    0.52100    0.58010    1.000
    O66      O        0.03656    0.55691    0.00780    1.000
    O67      O        0.01300    0.64659    0.85220    1.000
    O68      O        0.10176    0.52990    0.80280    1.000
    O69      O        0.06825    0.50730    0.65420    1.000
    O70      O        0.44229    0.53201    0.61020    1.000
    O71      O        0.04300    0.93176    0.97060    1.000
    O72      O        0.01010    0.75524    0.79010    1.000
    O73      O        0.24507    0.53930    0.83260    1.000
    O74      O        0.39710    0.50850    0.46990    1.000
    O75      O        0.35307    0.54060    0.76720    1.000
    O76      O        0.02170    0.89855    0.82090    1.000
    O77      O        0.05290    0.60190    0.14870    1.000
    H78      H        0.50543    0.16074    0.04908    1.000
    Zn79     Zn       0.02993    0.48740    0.12155    1.000
    H80      H        0.33830    0.42840    0.33270    1.000
    H81      H        0.22870    0.41310    0.38230    1.000
    H82      H        0.08940    0.17620    0.13620    1.000
    H83      H        0.00780    0.17140    0.14870    1.000
    H84      H        0.18532    0.57824    0.03288    1.000
    H85      H        0.01600    0.23500    0.72190    1.000
    H86      H        0.02120    0.33910    0.78760    1.000
    C87      C        0.10940    0.45630    0.31230    1.000
    C88      C        0.02010    0.38780    0.96680    1.000
    C89      C        0.38790    0.46630    0.15970    1.000
    C90      C        0.25850    0.47300    0.13570    1.000
    C91      C        0.31670    0.45930    0.19260    1.000
    C92      C        0.19350    0.47040    0.17310    1.000
    C93      C        0.30180    0.43830    0.28940    1.000
    C94      C        0.17920    0.45210    0.26870    1.000
    C95      C        0.23600    0.43240    0.32010    1.000
    C96      C        0.02220    0.31460    0.92880    1.000
    C97      C        0.03000    0.19220    0.94610    1.000
    C98      C        0.04500    0.18530    0.10400    1.000
    C99      C        0.02370    0.17970    0.84950    1.000
    C100     C        0.01980    0.10980    0.80710    1.000
    C101     C        0.02980    0.25890    0.98800    1.000
    C102     C        0.18460    0.52020    0.02330    1.000
    C103     C        0.01970    0.23940    0.79020    1.000
    C104     C        0.02100    0.30080    0.83010    1.000
    O105     O        0.05691    0.46344    0.25780    1.000
    O106     O        0.14659    0.48700    0.10220    1.000
    O107     O        0.02990    0.39824    0.05280    1.000
    O108     O        0.00730    0.43175    0.90420    1.000
    O109     O        0.03201    0.05771    0.86020    1.000
    O110     O        0.43176    0.45700    0.22060    1.000
    O111     O        0.25524    0.48990    0.04010    1.000
    O112     O        0.03930    0.25493    0.08260    1.000
    O113     O        0.00850    0.10290    0.71990    1.000
    O114     O        0.04060    0.14693    0.01720    1.000
    O115     O        0.39855    0.47830    0.07090    1.000
    O116     O        0.10190    0.44710    0.39870    1.000
    H117     H        0.66074    0.99457    0.29908    1.000
    Zn118    Zn       0.97007    0.51260    0.62155    1.000
    H119     H        0.66170    0.57160    0.83270    1.000
    H120     H        0.77130    0.58690    0.88230    1.000
    H121     H        0.91060    0.82380    0.63620    1.000
    H122     H        0.99220    0.82860    0.64870    1.000
    H123     H        0.81468    0.42176    0.53288    1.000
    H124     H        0.98400    0.76500    0.22190    1.000
    H125     H        0.97880    0.66090    0.28760    1.000
    C126     C        0.89060    0.54370    0.81230    1.000
    C127     C        0.97990    0.61220    0.46680    1.000
    C128     C        0.61210    0.53370    0.65970    1.000
    C129     C        0.74150    0.52700    0.63570    1.000
    C130     C        0.68330    0.54070    0.69260    1.000
    C131     C        0.80650    0.52960    0.67310    1.000
    C132     C        0.69820    0.56170    0.78940    1.000
    C133     C        0.82080    0.54790    0.76870    1.000
    C134     C        0.76400    0.56760    0.82010    1.000
    C135     C        0.97780    0.68540    0.42880    1.000
    C136     C        0.97000    0.80780    0.44610    1.000
    C137     C        0.95500    0.81470    0.60400    1.000
    C138     C        0.97630    0.82030    0.34950    1.000
    C139     C        0.98020    0.89020    0.30710    1.000
    C140     C        0.97020    0.74110    0.48800    1.000
    C141     C        0.81540    0.47980    0.52330    1.000
    C142     C        0.98030    0.76060    0.29020    1.000
    C143     C        0.97900    0.69920    0.33010    1.000
    O144     O        0.94309    0.53656    0.75780    1.000
    O145     O        0.85341    0.51300    0.60220    1.000
    O146     O        0.97010    0.60176    0.55280    1.000
    O147     O        0.99270    0.56825    0.40420    1.000
    O148     O        0.96799    0.94229    0.36020    1.000
    O149     O        0.56824    0.54300    0.72060    1.000
    O150     O        0.74476    0.51010    0.54010    1.000
    O151     O        0.96070    0.74507    0.58260    1.000
    O152     O        0.99150    0.89710    0.21990    1.000
    O153     O        0.95940    0.85307    0.51720    1.000
    O154     O        0.60145    0.52170    0.57090    1.000
    O155     O        0.89810    0.55290    0.89870    1.000
    H156     H        0.33926    0.00543    0.79908    1.000
    Zn157    Zn       0.51260    0.97007    0.37845    1.000
    H158     H        0.57160    0.66170    0.16730    1.000
    H159     H        0.58690    0.77130    0.11770    1.000
    H160     H        0.82380    0.91060    0.36380    1.000
    H161     H        0.82860    0.99220    0.35130    1.000
    H162     H        0.42176    0.81468    0.46712    1.000
    H163     H        0.76500    0.98400    0.77810    1.000
    H164     H        0.66090    0.97880    0.71240    1.000
    C165     C        0.54370    0.89060    0.18770    1.000
    C166     C        0.61220    0.97990    0.53320    1.000
    C167     C        0.53370    0.61210    0.34030    1.000
    C168     C        0.52700    0.74150    0.36430    1.000
    C169     C        0.54070    0.68330    0.30740    1.000
    C170     C        0.52960    0.80650    0.32690    1.000
    C171     C        0.56170    0.69820    0.21060    1.000
    C172     C        0.54790    0.82080    0.23130    1.000
    C173     C        0.56760    0.76400    0.17990    1.000
    C174     C        0.68540    0.97780    0.57120    1.000
    C175     C        0.80780    0.97000    0.55390    1.000
    C176     C        0.81470    0.95500    0.39600    1.000
    C177     C        0.82030    0.97630    0.65050    1.000
    C178     C        0.89020    0.98020    0.69290    1.000
    C179     C        0.74110    0.97020    0.51200    1.000
    C180     C        0.47980    0.81540    0.47670    1.000
    C181     C        0.76060    0.98030    0.70980    1.000
    C182     C        0.69920    0.97900    0.66990    1.000
    O183     O        0.53656    0.94309    0.24220    1.000
    O184     O        0.51300    0.85341    0.39780    1.000
    O185     O        0.60176    0.97010    0.44720    1.000
    O186     O        0.56825    0.99270    0.59580    1.000
    O187     O        0.94229    0.96799    0.63980    1.000
    O188     O        0.54300    0.56824    0.27940    1.000
    O189     O        0.51010    0.74476    0.45990    1.000
    O190     O        0.74507    0.96070    0.41740    1.000
    O191     O        0.89710    0.99150    0.78010    1.000
    O192     O        0.85307    0.95940    0.48280    1.000
    O193     O        0.52170    0.60145    0.42910    1.000
    O194     O        0.55290    0.89810    0.10130    1.000
    H195     H        0.00543    0.33926    0.20092    1.000
    Zn196    Zn       0.48740    0.02993    0.87845    1.000
    H197     H        0.42840    0.33830    0.66730    1.000
    H198     H        0.41310    0.22870    0.61770    1.000
    H199     H        0.17620    0.08940    0.86380    1.000
    H200     H        0.17140    0.00780    0.85130    1.000
    H201     H        0.57824    0.18532    0.96712    1.000
    H202     H        0.23500    0.01600    0.27810    1.000
    H203     H        0.33910    0.02120    0.21240    1.000
    C204     C        0.45630    0.10940    0.68770    1.000
    C205     C        0.38780    0.02010    0.03320    1.000
    C206     C        0.46630    0.38790    0.84030    1.000
    C207     C        0.47300    0.25850    0.86430    1.000
    C208     C        0.45930    0.31670    0.80740    1.000
    C209     C        0.47040    0.19350    0.82690    1.000
    C210     C        0.43830    0.30180    0.71060    1.000
    C211     C        0.45210    0.17920    0.73130    1.000
    C212     C        0.43240    0.23600    0.67990    1.000
    C213     C        0.31460    0.02220    0.07120    1.000
    C214     C        0.19220    0.03000    0.05390    1.000
    C215     C        0.18530    0.04500    0.89600    1.000
    C216     C        0.17970    0.02370    0.15050    1.000
    C217     C        0.10980    0.01980    0.19290    1.000
    C218     C        0.25890    0.02980    0.01200    1.000
    C219     C        0.52020    0.18460    0.97670    1.000
    C220     C        0.23940    0.01970    0.20980    1.000
    C221     C        0.30080    0.02100    0.16990    1.000
    O222     O        0.46344    0.05691    0.74220    1.000
    O223     O        0.48700    0.14659    0.89780    1.000
    O224     O        0.39824    0.02990    0.94720    1.000
    O225     O        0.43175    0.00730    0.09580    1.000
    O226     O        0.05771    0.03201    0.13980    1.000
    O227     O        0.45700    0.43176    0.77940    1.000
    O228     O        0.48990    0.25524    0.95990    1.000
    O229     O        0.25493    0.03930    0.91740    1.000
    O230     O        0.10290    0.00850    0.28010    1.000
    O231     O        0.14693    0.04060    0.98280    1.000
    O232     O        0.47830    0.39855    0.92910    1.000
    O233     O        0.44710    0.10190    0.60130    1.000
    H234     H        0.99457    0.66074    0.70092    1.000
    Zn235    Zn       0.47007    0.98740    0.62845    1.000
    H236     H        0.16170    0.92840    0.41730    1.000
    H237     H        0.27130    0.91310    0.36770    1.000
    H238     H        0.41060    0.67620    0.61380    1.000
    H239     H        0.49220    0.67140    0.60130    1.000
    H240     H        0.31468    0.07824    0.71712    1.000
    H241     H        0.48400    0.73500    0.02810    1.000
    H242     H        0.47880    0.83910    0.96240    1.000
    C243     C        0.39060    0.95630    0.43770    1.000
    C244     C        0.47990    0.88780    0.78320    1.000
    C245     C        0.11210    0.96630    0.59030    1.000
    C246     C        0.24150    0.97300    0.61430    1.000
    C247     C        0.18330    0.95930    0.55740    1.000
    C248     C        0.30650    0.97040    0.57690    1.000
    C249     C        0.19820    0.93830    0.46060    1.000
    C250     C        0.32080    0.95210    0.48130    1.000
    C251     C        0.26400    0.93240    0.42990    1.000
    C252     C        0.47780    0.81460    0.82120    1.000
    C253     C        0.47000    0.69220    0.80390    1.000
    C254     C        0.45500    0.68530    0.64600    1.000
    C255     C        0.47630    0.67970    0.90050    1.000
    C256     C        0.48020    0.60980    0.94290    1.000
    C257     C        0.47020    0.75890    0.76200    1.000
    C258     C        0.31540    0.02020    0.72670    1.000
    C259     C        0.48030    0.73940    0.95980    1.000
    C260     C        0.47900    0.80080    0.91990    1.000
    O261     O        0.44309    0.96344    0.49220    1.000
    O262     O        0.35341    0.98700    0.64780    1.000
    O263     O        0.47010    0.89824    0.69720    1.000
    O264     O        0.49270    0.93175    0.84580    1.000
    O265     O        0.46799    0.55771    0.88980    1.000
    O266     O        0.06824    0.95700    0.52940    1.000
    O267     O        0.24476    0.98990    0.70990    1.000
    O268     O        0.46070    0.75493    0.66740    1.000
    O269     O        0.49150    0.60290    0.03010    1.000
    O270     O        0.45940    0.64693    0.73280    1.000
    O271     O        0.10145    0.97830    0.67910    1.000
    O272     O        0.39810    0.94710    0.35130    1.000
    H273     H        0.83926    0.49457    0.45092    1.000
    Zn274    Zn       0.52993    0.01260    0.12845    1.000
    H275     H        0.83830    0.07160    0.91730    1.000
    H276     H        0.72870    0.08690    0.86770    1.000
    H277     H        0.58940    0.32380    0.11380    1.000
    H278     H        0.50780    0.32860    0.10130    1.000
    H279     H        0.68532    0.92176    0.21712    1.000
    H280     H        0.51600    0.26500    0.52810    1.000
    H281     H        0.52120    0.16090    0.46240    1.000
    C282     C        0.60940    0.04370    0.93770    1.000
    C283     C        0.52010    0.11220    0.28320    1.000
    C284     C        0.88790    0.03370    0.09030    1.000
    C285     C        0.75850    0.02700    0.11430    1.000
    C286     C        0.81670    0.04070    0.05740    1.000
    C287     C        0.69350    0.02960    0.07690    1.000
    C288     C        0.80180    0.06170    0.96060    1.000
    C289     C        0.67920    0.04790    0.98130    1.000
    C290     C        0.73600    0.06760    0.92990    1.000
    C291     C        0.52220    0.18540    0.32120    1.000
    C292     C        0.53000    0.30780    0.30390    1.000
    C293     C        0.54500    0.31470    0.14600    1.000
    C294     C        0.52370    0.32030    0.40050    1.000
    C295     C        0.51980    0.39020    0.44290    1.000
    C296     C        0.52980    0.24110    0.26200    1.000
    C297     C        0.68460    0.97980    0.22670    1.000
    C298     C        0.51970    0.26060    0.45980    1.000
    C299     C        0.52100    0.19920    0.41990    1.000
    O300     O        0.55691    0.03656    0.99220    1.000
    O301     O        0.64659    0.01300    0.14780    1.000
    O302     O        0.52990    0.10176    0.19720    1.000
    O303     O        0.50730    0.06825    0.34580    1.000
    O304     O        0.53201    0.44229    0.38980    1.000
    O305     O        0.93176    0.04300    0.02940    1.000
    O306     O        0.75524    0.01010    0.20990    1.000
    O307     O        0.53930    0.24507    0.16740    1.000
    O308     O        0.50850    0.39710    0.53010    1.000
    O309     O        0.54060    0.35307    0.23280    1.000
    O310     O        0.89855    0.02170    0.17910    1.000
    O311     O        0.60190    0.05290    0.85130    1.000
    H312     H        0.16074    0.50543    0.95092    1.000
    Zn313    Zn       0.48631    0.48631    0.00000    1.000
    Zn314    Zn       0.51369    0.51369    0.50000    1.000
    Zn315    Zn       0.01369    0.98631    0.75000    1.000
    Zn316    Zn       0.98631    0.01369    0.25000    1.000
    Zn317    Zn       0.52986    0.47014    0.25000    1.000
    Zn318    Zn       0.47014    0.52986    0.75000    1.000
    Zn319    Zn       0.02986    0.02986    0.00000    1.000
    Zn320    Zn       0.97014    0.97014    0.50000    1.000
