# CIF file generated by openbabel 3.1.0, see https://openbabel.org
data_I
_chemical_name_common 'image0'
_cell_length_a 30.0742
_cell_length_b 44.9301
_cell_length_c 18.4571
_cell_angle_alpha 90
_cell_angle_beta 107.961
_cell_angle_gamma 90
_space_group_name_H-M_alt 'P 1'
_space_group_name_Hall 'P 1'
loop_
    _symmetry_equiv_pos_as_xyz
    x,y,z
loop_
    _atom_site_label
    _atom_site_type_symbol
    _atom_site_fract_x
    _atom_site_fract_y
    _atom_site_fract_z
    _atom_site_occupancy
    Cu1      Cu       0.23860    0.46001    0.18311    1.000
    Cu2      Cu       0.25904    0.42649    0.30619    1.000
    Cu3      Cu       0.47050    0.69124    0.78947    1.000
    O1       O        0.25841    0.49369    0.25246    1.000
    O2       O        0.27816    0.46515    0.35643    1.000
    O3       O        0.22042    0.42225    0.13080    1.000
    O4       O        0.23632    0.39332    0.23634    1.000
    O5       O        0.30417    0.45331    0.19238    1.000
    O6       O        0.32097    0.42305    0.29309    1.000
    O7       O        0.17645    0.46244    0.19503    1.000
    O8       O        0.19395    0.43432    0.30085    1.000
    O9       O        0.43531    0.66294    0.71180    1.000
    O10      O        0.49015    0.65912    0.65387    1.000
    O11      O        0.01328    0.22013    0.85377    1.000
    O12      O        0.05991    0.22408    0.77690    1.000
    C1       C        0.27548    0.48947    0.32270    1.000
    C2       C        0.29509    0.51557    0.37010    1.000
    C3       C        0.30214    0.54247    0.33610    1.000
    H1       H        0.29190    0.54430    0.28220    1.000
    C4       C        0.32400    0.56645    0.38060    1.000
    H2       H        0.32820    0.58450    0.35690    1.000
    C5       C        0.33968    0.56411    0.45970    1.000
    C6       C        0.33220    0.53779    0.49290    1.000
    H3       H        0.34140    0.53620    0.54680    1.000
    C7       C        0.31141    0.51378    0.44880    1.000
    H4       H        0.30830    0.49560    0.47300    1.000
    C8       C        0.36590    0.58861    0.50890    1.000
    C9       C        0.35002    0.60258    0.56140    1.000
    C10      C        0.37761    0.62367    0.61100    1.000
    H5       H        0.36610    0.63310    0.64770    1.000
    C11      C        0.42070    0.63082    0.60710    1.000
    C12      C        0.43730    0.61764    0.55180    1.000
    H6       H        0.46680    0.62340    0.54790    1.000
    C13      C        0.41140    0.59644    0.50300    1.000
    H7       H        0.42300    0.58720    0.46630    1.000
    C14      C        0.45118    0.65330    0.66280    1.000
    C15      C        0.30180    0.59940    0.56330    1.000
    H8       H        0.29970    0.58090    0.59110    1.000
    H9       H        0.29490    0.61620    0.59280    1.000
    N1       N        0.26600    0.59850    0.49050    1.000
    C16      C        0.25720    0.62610    0.44290    1.000
    H10      H        0.27330    0.64460    0.45220    1.000
    N2       N        0.22580    0.61900    0.39160    1.000
    C17      C        0.20600    0.58360    0.39170    1.000
    H11      H        0.18200    0.57330    0.35430    1.000
    C18      C        0.23540    0.57380    0.46340    1.000
    H12      H        0.23490    0.55520    0.48770    1.000
    C19      C        0.19890    0.63310    0.31320    1.000
    H13      H        0.17420    0.61940    0.28480    1.000
    H14      H        0.22060    0.63670    0.28410    1.000
    H15      H        0.18480    0.65200    0.32140    1.000
    C20      C        0.33104    0.43728    0.24220    1.000
    C21      C        0.38179    0.43635    0.24380    1.000
    C22      C        0.39813    0.45866    0.20640    1.000
    H16      H        0.37730    0.47350    0.17850    1.000
    C23      C        0.44467    0.45933    0.20970    1.000
    C24      C        0.47457    0.43603    0.24760    1.000
    C25      C        0.45727    0.41379    0.28230    1.000
    H17      H        0.47720    0.39800    0.30720    1.000
    C26      C        0.41099    0.41413    0.28110    1.000
    H18      H        0.39950    0.39890    0.30630    1.000
    C27      C        0.46440    0.48870    0.18650    1.000
    H19      H        0.43870    0.50210    0.15900    1.000
    H20      H        0.48460    0.49910    0.23200    1.000
    N3       N        0.49110    0.47930    0.13780    1.000
    C28      C        0.46710    0.46350    0.06370    1.000
    H21      H        0.43470    0.45940    0.04130    1.000
    N4       N        0.49680    0.45780    0.04160    1.000
    C29      C        0.54810    0.47610    0.08330    1.000
    H22      H        0.57550    0.47780    0.06850    1.000
    C30      C        0.53690    0.48810    0.14780    1.000
    H23      H        0.55650    0.49960    0.18840    1.000
    C31      C        0.50920    0.43550    0.98700    1.000
    H24      H        0.53880    0.44120    0.97940    1.000
    H25      H        0.48440    0.43550    0.93790    1.000
    H26      H        0.51210    0.41550    0.00910    1.000
    C32      C        0.22089    0.39784    0.16630    1.000
    C33      C        0.19921    0.37147    0.11550    1.000
    C34      C        0.19908    0.34344    0.14640    1.000
    H27      H        0.21500    0.34030    0.19890    1.000
    C35      C        0.17720    0.32071    0.10400    1.000
    C36      C        0.15390    0.32427    0.02660    1.000
    C37      C        0.15190    0.35226    0.99470    1.000
    H28      H        0.13520    0.35540    0.94250    1.000
    C38      C        0.17460    0.37553    0.04020    1.000
    H29      H        0.17320    0.39480    0.01870    1.000
    C39      C        0.12550    0.29949    0.97950    1.000
    C40      C        0.08440    0.29154    0.99200    1.000
    H30      H        0.07240    0.30130    0.02760    1.000
    C41      C        0.06100    0.26646    0.94460    1.000
    H31      H        0.03470    0.25770    0.95450    1.000
    C42      C        0.07587    0.25492    0.88500    1.000
    C43      C        0.11380    0.26644    0.87090    1.000
    H32      H        0.12390    0.25930    0.83010    1.000
    C44      C        0.13780    0.28938    0.91880    1.000
    H33      H        0.16380    0.29830    0.90830    1.000
    C45      C        0.04726    0.23029    0.83650    1.000
    C46      C        0.19750    0.29060    0.13120    1.000
    H34      H        0.18250    0.28400    0.16930    1.000
    H35      H        0.18590    0.27700    0.08710    1.000
    N5       N        0.24820    0.28390    0.16480    1.000
    C47      C        0.28190    0.28820    0.11930    1.000
    H36      H        0.27640    0.29390    0.06770    1.000
    N6       N        0.31530    0.28260    0.16500    1.000
    C48      C        0.31250    0.26290    0.24490    1.000
    H37      H        0.33570    0.25220    0.28270    1.000
    C49      C        0.26420    0.26810    0.23510    1.000
    H38      H        0.24670    0.26230    0.26780    1.000
    C50      C        0.36240    0.27030    0.15580    1.000
    H39      H        0.38380    0.26480    0.20580    1.000
    H40      H        0.37700    0.28570    0.13300    1.000
    H41      H        0.35580    0.25270    0.12270    1.000
    C51      C        0.16663    0.44937    0.24840    1.000
    C52      C        0.11708    0.45163    0.25040    1.000
    C53      C        0.08486    0.46632    0.19680    1.000
    H42      H        0.09230    0.47350    0.15350    1.000
    C54      C        0.04074    0.47146    0.20240    1.000
    C55      C        0.02480    0.45483    0.25030    1.000
    C56      C        0.05609    0.43655    0.29840    1.000
    H43      H        0.04640    0.42480    0.33370    1.000
    C57      C        0.10182    0.43451    0.29740    1.000
    H44      H        0.12260    0.42080    0.33030    1.000
    C58      C        0.00250    0.49580    0.17930    1.000
    H45      H        0.97860    0.48940    0.20270    1.000
    H46      H        0.01730    0.51370    0.20810    1.000
    N7       N        0.97610    0.50700    0.10560    1.000
    C59      C        0.97580    0.54010    0.08880    1.000
    H47      H        0.99270    0.55550    0.12090    1.000
    N8       N        0.95030    0.54210    0.02800    1.000
    C60      C        0.92230    0.50960    0.99240    1.000
    H48      H        0.89680    0.50670    0.94740    1.000
    C61      C        0.94610    0.48860    0.04600    1.000
    H49      H        0.94330    0.46760    0.04340    1.000
    C62      C        0.92560    0.56810    0.97560    1.000
    H50      H        0.90260    0.56010    0.92990    1.000
    H51      H        0.94890    0.57990    0.96100    1.000
    H52      H        0.90970    0.58080    0.00310    1.000
    Cu4      Cu       0.73860    0.96001    0.18311    1.000
    Cu5      Cu       0.75904    0.92649    0.30619    1.000
    Cu6      Cu       0.97050    0.19124    0.78947    1.000
    O13      O        0.75841    0.99369    0.25246    1.000
    O14      O        0.77816    0.96515    0.35643    1.000
    O15      O        0.72042    0.92225    0.13080    1.000
    O16      O        0.73632    0.89332    0.23634    1.000
    O17      O        0.80417    0.95331    0.19238    1.000
    O18      O        0.82097    0.92305    0.29309    1.000
    O19      O        0.67645    0.96244    0.19503    1.000
    O20      O        0.69395    0.93432    0.30085    1.000
    O21      O        0.93531    0.16294    0.71180    1.000
    O22      O        0.99015    0.15912    0.65387    1.000
    O23      O        0.51328    0.72013    0.85377    1.000
    O24      O        0.55991    0.72408    0.77690    1.000
    C63      C        0.77548    0.98947    0.32270    1.000
    C64      C        0.79509    0.01557    0.37010    1.000
    C65      C        0.80214    0.04247    0.33610    1.000
    H53      H        0.79190    0.04430    0.28220    1.000
    C66      C        0.82400    0.06645    0.38060    1.000
    H54      H        0.82820    0.08450    0.35690    1.000
    C67      C        0.83968    0.06411    0.45970    1.000
    C68      C        0.83220    0.03779    0.49290    1.000
    H55      H        0.84140    0.03620    0.54680    1.000
    C69      C        0.81141    0.01378    0.44880    1.000
    H56      H        0.80830    0.99560    0.47300    1.000
    C70      C        0.86590    0.08861    0.50890    1.000
    C71      C        0.85002    0.10258    0.56140    1.000
    C72      C        0.87761    0.12367    0.61100    1.000
    H57      H        0.86610    0.13310    0.64770    1.000
    C73      C        0.92070    0.13082    0.60710    1.000
    C74      C        0.93730    0.11764    0.55180    1.000
    H58      H        0.96680    0.12340    0.54790    1.000
    C75      C        0.91140    0.09644    0.50300    1.000
    H59      H        0.92300    0.08720    0.46630    1.000
    C76      C        0.95118    0.15330    0.66280    1.000
    C77      C        0.80180    0.09940    0.56330    1.000
    H60      H        0.79970    0.08090    0.59110    1.000
    H61      H        0.79490    0.11620    0.59280    1.000
    N9       N        0.76600    0.09850    0.49050    1.000
    C78      C        0.75720    0.12610    0.44290    1.000
    H62      H        0.77330    0.14460    0.45220    1.000
    N10      N        0.72580    0.11900    0.39160    1.000
    C79      C        0.70600    0.08360    0.39170    1.000
    H63      H        0.68200    0.07330    0.35430    1.000
    C80      C        0.73540    0.07380    0.46340    1.000
    H64      H        0.73490    0.05520    0.48770    1.000
    C81      C        0.69890    0.13310    0.31320    1.000
    H65      H        0.67420    0.11940    0.28480    1.000
    H66      H        0.72060    0.13670    0.28410    1.000
    H67      H        0.68480    0.15200    0.32140    1.000
    C82      C        0.83104    0.93728    0.24220    1.000
    C83      C        0.88179    0.93635    0.24380    1.000
    C84      C        0.89813    0.95866    0.20640    1.000
    H68      H        0.87730    0.97350    0.17850    1.000
    C85      C        0.94467    0.95933    0.20970    1.000
    C86      C        0.97457    0.93603    0.24760    1.000
    C87      C        0.95727    0.91379    0.28230    1.000
    H69      H        0.97720    0.89800    0.30720    1.000
    C88      C        0.91099    0.91413    0.28110    1.000
    H70      H        0.89950    0.89890    0.30630    1.000
    C89      C        0.96440    0.98870    0.18650    1.000
    H71      H        0.93870    0.00210    0.15900    1.000
    H72      H        0.98460    0.99910    0.23200    1.000
    N11      N        0.99110    0.97930    0.13780    1.000
    C90      C        0.96710    0.96350    0.06370    1.000
    H73      H        0.93470    0.95940    0.04130    1.000
    N12      N        0.99680    0.95780    0.04160    1.000
    C91      C        0.04810    0.97610    0.08330    1.000
    H74      H        0.07550    0.97780    0.06850    1.000
    C92      C        0.03690    0.98810    0.14780    1.000
    H75      H        0.05650    0.99960    0.18840    1.000
    C93      C        0.00920    0.93550    0.98700    1.000
    H76      H        0.03880    0.94120    0.97940    1.000
    H77      H        0.98440    0.93550    0.93790    1.000
    H78      H        0.01210    0.91550    0.00910    1.000
    C94      C        0.72089    0.89784    0.16630    1.000
    C95      C        0.69921    0.87147    0.11550    1.000
    C96      C        0.69908    0.84344    0.14640    1.000
    H79      H        0.71500    0.84030    0.19890    1.000
    C97      C        0.67720    0.82071    0.10400    1.000
    C98      C        0.65390    0.82427    0.02660    1.000
    C99      C        0.65190    0.85226    0.99470    1.000
    H80      H        0.63520    0.85540    0.94250    1.000
    C100     C        0.67460    0.87553    0.04020    1.000
    H81      H        0.67320    0.89480    0.01870    1.000
    C101     C        0.62550    0.79949    0.97950    1.000
    C102     C        0.58440    0.79154    0.99200    1.000
    H82      H        0.57240    0.80130    0.02760    1.000
    C103     C        0.56100    0.76646    0.94460    1.000
    H83      H        0.53470    0.75770    0.95450    1.000
    C104     C        0.57587    0.75492    0.88500    1.000
    C105     C        0.61380    0.76644    0.87090    1.000
    H84      H        0.62390    0.75930    0.83010    1.000
    C106     C        0.63780    0.78938    0.91880    1.000
    H85      H        0.66380    0.79830    0.90830    1.000
    C107     C        0.54726    0.73029    0.83650    1.000
    C108     C        0.69750    0.79060    0.13120    1.000
    H86      H        0.68250    0.78400    0.16930    1.000
    H87      H        0.68590    0.77700    0.08710    1.000
    N13      N        0.74820    0.78390    0.16480    1.000
    C109     C        0.78190    0.78820    0.11930    1.000
    H88      H        0.77640    0.79390    0.06770    1.000
    N14      N        0.81530    0.78260    0.16500    1.000
    C110     C        0.81250    0.76290    0.24490    1.000
    H89      H        0.83570    0.75220    0.28270    1.000
    C111     C        0.76420    0.76810    0.23510    1.000
    H90      H        0.74670    0.76230    0.26780    1.000
    C112     C        0.86240    0.77030    0.15580    1.000
    H91      H        0.88380    0.76480    0.20580    1.000
    H92      H        0.87700    0.78570    0.13300    1.000
    H93      H        0.85580    0.75270    0.12270    1.000
    C113     C        0.66663    0.94937    0.24840    1.000
    C114     C        0.61708    0.95163    0.25040    1.000
    C115     C        0.58486    0.96632    0.19680    1.000
    H94      H        0.59230    0.97350    0.15350    1.000
    C116     C        0.54074    0.97146    0.20240    1.000
    C117     C        0.52480    0.95483    0.25030    1.000
    C118     C        0.55609    0.93655    0.29840    1.000
    H95      H        0.54640    0.92480    0.33370    1.000
    C119     C        0.60182    0.93451    0.29740    1.000
    H96      H        0.62260    0.92080    0.33030    1.000
    C120     C        0.50250    0.99580    0.17930    1.000
    H97      H        0.47860    0.98940    0.20270    1.000
    H98      H        0.51730    0.01370    0.20810    1.000
    N15      N        0.47610    0.00700    0.10560    1.000
    C121     C        0.47580    0.04010    0.08880    1.000
    H99      H        0.49270    0.05550    0.12090    1.000
    N16      N        0.45030    0.04210    0.02800    1.000
    C122     C        0.42230    0.00960    0.99240    1.000
    H100     H        0.39680    0.00670    0.94740    1.000
    C123     C        0.44610    0.98860    0.04600    1.000
    H101     H        0.44330    0.96760    0.04340    1.000
    C124     C        0.42560    0.06810    0.97560    1.000
    H102     H        0.40260    0.06010    0.92990    1.000
    H103     H        0.44890    0.07990    0.96100    1.000
    H104     H        0.40970    0.08080    0.00310    1.000
    Cu7      Cu       0.76140    0.46001    0.31689    1.000
    Cu8      Cu       0.74096    0.42649    0.19381    1.000
    Cu9      Cu       0.52950    0.69124    0.71053    1.000
    O25      O        0.74159    0.49369    0.24754    1.000
    O26      O        0.72184    0.46515    0.14357    1.000
    O27      O        0.77958    0.42225    0.36920    1.000
    O28      O        0.76368    0.39332    0.26366    1.000
    O29      O        0.69583    0.45331    0.30762    1.000
    O30      O        0.67903    0.42305    0.20691    1.000
    O31      O        0.82355    0.46244    0.30497    1.000
    O32      O        0.80605    0.43432    0.19915    1.000
    O33      O        0.56469    0.66294    0.78820    1.000
    O34      O        0.50985    0.65912    0.84613    1.000
    O35      O        0.98672    0.22013    0.64623    1.000
    O36      O        0.94009    0.22408    0.72310    1.000
    C125     C        0.72452    0.48947    0.17730    1.000
    C126     C        0.70491    0.51557    0.12990    1.000
    C127     C        0.69786    0.54247    0.16390    1.000
    H105     H        0.70810    0.54430    0.21780    1.000
    C128     C        0.67600    0.56645    0.11940    1.000
    H106     H        0.67180    0.58450    0.14310    1.000
    C129     C        0.66032    0.56411    0.04030    1.000
    C130     C        0.66780    0.53779    0.00710    1.000
    H107     H        0.65860    0.53620    0.95320    1.000
    C131     C        0.68859    0.51378    0.05120    1.000
    H108     H        0.69170    0.49560    0.02700    1.000
    C132     C        0.63410    0.58861    0.99110    1.000
    C133     C        0.64998    0.60258    0.93860    1.000
    C134     C        0.62239    0.62367    0.88900    1.000
    H109     H        0.63390    0.63310    0.85230    1.000
    C135     C        0.57930    0.63082    0.89290    1.000
    C136     C        0.56270    0.61764    0.94820    1.000
    H110     H        0.53320    0.62340    0.95210    1.000
    C137     C        0.58860    0.59644    0.99700    1.000
    H111     H        0.57700    0.58720    0.03370    1.000
    C138     C        0.54882    0.65330    0.83720    1.000
    C139     C        0.69820    0.59940    0.93670    1.000
    H112     H        0.70030    0.58090    0.90890    1.000
    H113     H        0.70510    0.61620    0.90720    1.000
    N17      N        0.73400    0.59850    0.00950    1.000
    C140     C        0.74280    0.62610    0.05710    1.000
    H114     H        0.72670    0.64460    0.04780    1.000
    N18      N        0.77420    0.61900    0.10840    1.000
    C141     C        0.79400    0.58360    0.10830    1.000
    H115     H        0.81800    0.57330    0.14570    1.000
    C142     C        0.76460    0.57380    0.03660    1.000
    H116     H        0.76510    0.55520    0.01230    1.000
    C143     C        0.80110    0.63310    0.18680    1.000
    H117     H        0.82580    0.61940    0.21520    1.000
    H118     H        0.77940    0.63670    0.21590    1.000
    H119     H        0.81520    0.65200    0.17860    1.000
    C144     C        0.66896    0.43728    0.25780    1.000
    C145     C        0.61821    0.43635    0.25620    1.000
    C146     C        0.60187    0.45866    0.29360    1.000
    H120     H        0.62270    0.47350    0.32150    1.000
    C147     C        0.55533    0.45933    0.29030    1.000
    C148     C        0.52543    0.43603    0.25240    1.000
    C149     C        0.54273    0.41379    0.21770    1.000
    H121     H        0.52280    0.39800    0.19280    1.000
    C150     C        0.58901    0.41413    0.21890    1.000
    H122     H        0.60050    0.39890    0.19370    1.000
    C151     C        0.53560    0.48870    0.31350    1.000
    H123     H        0.56130    0.50210    0.34100    1.000
    H124     H        0.51540    0.49910    0.26800    1.000
    N19      N        0.50890    0.47930    0.36220    1.000
    C152     C        0.53290    0.46350    0.43630    1.000
    H125     H        0.56530    0.45940    0.45870    1.000
    N20      N        0.50320    0.45780    0.45840    1.000
    C153     C        0.45190    0.47610    0.41670    1.000
    H126     H        0.42450    0.47780    0.43150    1.000
    C154     C        0.46310    0.48810    0.35220    1.000
    H127     H        0.44350    0.49960    0.31160    1.000
    C155     C        0.49080    0.43550    0.51300    1.000
    H128     H        0.46120    0.44120    0.52060    1.000
    H129     H        0.51560    0.43550    0.56210    1.000
    H130     H        0.48790    0.41550    0.49090    1.000
    C156     C        0.77911    0.39784    0.33370    1.000
    C157     C        0.80079    0.37147    0.38450    1.000
    C158     C        0.80092    0.34344    0.35360    1.000
    H131     H        0.78500    0.34030    0.30110    1.000
    C159     C        0.82280    0.32071    0.39600    1.000
    C160     C        0.84610    0.32427    0.47340    1.000
    C161     C        0.84810    0.35226    0.50530    1.000
    H132     H        0.86480    0.35540    0.55750    1.000
    C162     C        0.82540    0.37553    0.45980    1.000
    H133     H        0.82680    0.39480    0.48130    1.000
    C163     C        0.87450    0.29949    0.52050    1.000
    C164     C        0.91560    0.29154    0.50800    1.000
    H134     H        0.92760    0.30130    0.47240    1.000
    C165     C        0.93900    0.26646    0.55540    1.000
    H135     H        0.96530    0.25770    0.54550    1.000
    C166     C        0.92413    0.25492    0.61500    1.000
    C167     C        0.88620    0.26644    0.62910    1.000
    H136     H        0.87610    0.25930    0.66990    1.000
    C168     C        0.86220    0.28938    0.58120    1.000
    H137     H        0.83620    0.29830    0.59170    1.000
    C169     C        0.95274    0.23029    0.66350    1.000
    C170     C        0.80250    0.29060    0.36880    1.000
    H138     H        0.81750    0.28400    0.33070    1.000
    H139     H        0.81410    0.27700    0.41290    1.000
    N21      N        0.75180    0.28390    0.33520    1.000
    C171     C        0.71810    0.28820    0.38070    1.000
    H140     H        0.72360    0.29390    0.43230    1.000
    N22      N        0.68470    0.28260    0.33500    1.000
    C172     C        0.68750    0.26290    0.25510    1.000
    H141     H        0.66430    0.25220    0.21730    1.000
    C173     C        0.73580    0.26810    0.26490    1.000
    H142     H        0.75330    0.26230    0.23220    1.000
    C174     C        0.63760    0.27030    0.34420    1.000
    H143     H        0.61620    0.26480    0.29420    1.000
    H144     H        0.62300    0.28570    0.36700    1.000
    H145     H        0.64420    0.25270    0.37730    1.000
    C175     C        0.83337    0.44937    0.25160    1.000
    C176     C        0.88292    0.45163    0.24960    1.000
    C177     C        0.91514    0.46632    0.30320    1.000
    H146     H        0.90770    0.47350    0.34650    1.000
    C178     C        0.95926    0.47146    0.29760    1.000
    C179     C        0.97520    0.45483    0.24970    1.000
    C180     C        0.94391    0.43655    0.20160    1.000
    H147     H        0.95360    0.42480    0.16630    1.000
    C181     C        0.89818    0.43451    0.20260    1.000
    H148     H        0.87740    0.42080    0.16970    1.000
    C182     C        0.99750    0.49580    0.32070    1.000
    H149     H        0.02140    0.48940    0.29730    1.000
    H150     H        0.98270    0.51370    0.29190    1.000
    N23      N        0.02390    0.50700    0.39440    1.000
    C183     C        0.02420    0.54010    0.41120    1.000
    H151     H        0.00730    0.55550    0.37910    1.000
    N24      N        0.04970    0.54210    0.47200    1.000
    C184     C        0.07770    0.50960    0.50760    1.000
    H152     H        0.10320    0.50670    0.55260    1.000
    C185     C        0.05390    0.48860    0.45400    1.000
    H153     H        0.05670    0.46760    0.45660    1.000
    C186     C        0.07440    0.56810    0.52440    1.000
    H154     H        0.09740    0.56010    0.57010    1.000
    H155     H        0.05110    0.57990    0.53900    1.000
    H156     H        0.09030    0.58080    0.49690    1.000
    Cu10     Cu       0.26140    0.96001    0.31689    1.000
    Cu11     Cu       0.24096    0.92649    0.19381    1.000
    Cu12     Cu       0.02950    0.19124    0.71053    1.000
    O37      O        0.24159    0.99369    0.24754    1.000
    O38      O        0.22184    0.96515    0.14357    1.000
    O39      O        0.27958    0.92225    0.36920    1.000
    O40      O        0.26368    0.89332    0.26366    1.000
    O41      O        0.19583    0.95331    0.30762    1.000
    O42      O        0.17903    0.92305    0.20691    1.000
    O43      O        0.32355    0.96244    0.30497    1.000
    O44      O        0.30605    0.93432    0.19915    1.000
    O45      O        0.06469    0.16294    0.78820    1.000
    O46      O        0.00985    0.15912    0.84613    1.000
    O47      O        0.48672    0.72013    0.64623    1.000
    O48      O        0.44009    0.72408    0.72310    1.000
    C187     C        0.22452    0.98947    0.17730    1.000
    C188     C        0.20491    0.01557    0.12990    1.000
    C189     C        0.19786    0.04247    0.16390    1.000
    H157     H        0.20810    0.04430    0.21780    1.000
    C190     C        0.17600    0.06645    0.11940    1.000
    H158     H        0.17180    0.08450    0.14310    1.000
    C191     C        0.16032    0.06411    0.04030    1.000
    C192     C        0.16780    0.03779    0.00710    1.000
    H159     H        0.15860    0.03620    0.95320    1.000
    C193     C        0.18859    0.01378    0.05120    1.000
    H160     H        0.19170    0.99560    0.02700    1.000
    C194     C        0.13410    0.08861    0.99110    1.000
    C195     C        0.14998    0.10258    0.93860    1.000
    C196     C        0.12239    0.12367    0.88900    1.000
    H161     H        0.13390    0.13310    0.85230    1.000
    C197     C        0.07930    0.13082    0.89290    1.000
    C198     C        0.06270    0.11764    0.94820    1.000
    H162     H        0.03320    0.12340    0.95210    1.000
    C199     C        0.08860    0.09644    0.99700    1.000
    H163     H        0.07700    0.08720    0.03370    1.000
    C200     C        0.04882    0.15330    0.83720    1.000
    C201     C        0.19820    0.09940    0.93670    1.000
    H164     H        0.20030    0.08090    0.90890    1.000
    H165     H        0.20510    0.11620    0.90720    1.000
    N25      N        0.23400    0.09850    0.00950    1.000
    C202     C        0.24280    0.12610    0.05710    1.000
    H166     H        0.22670    0.14460    0.04780    1.000
    N26      N        0.27420    0.11900    0.10840    1.000
    C203     C        0.29400    0.08360    0.10830    1.000
    H167     H        0.31800    0.07330    0.14570    1.000
    C204     C        0.26460    0.07380    0.03660    1.000
    H168     H        0.26510    0.05520    0.01230    1.000
    C205     C        0.30110    0.13310    0.18680    1.000
    H169     H        0.32580    0.11940    0.21520    1.000
    H170     H        0.27940    0.13670    0.21590    1.000
    H171     H        0.31520    0.15200    0.17860    1.000
    C206     C        0.16896    0.93728    0.25780    1.000
    C207     C        0.11821    0.93635    0.25620    1.000
    C208     C        0.10187    0.95866    0.29360    1.000
    H172     H        0.12270    0.97350    0.32150    1.000
    C209     C        0.05533    0.95933    0.29030    1.000
    C210     C        0.02543    0.93603    0.25240    1.000
    C211     C        0.04273    0.91379    0.21770    1.000
    H173     H        0.02280    0.89800    0.19280    1.000
    C212     C        0.08901    0.91413    0.21890    1.000
    H174     H        0.10050    0.89890    0.19370    1.000
    C213     C        0.03560    0.98870    0.31350    1.000
    H175     H        0.06130    0.00210    0.34100    1.000
    H176     H        0.01540    0.99910    0.26800    1.000
    N27      N        0.00890    0.97930    0.36220    1.000
    C214     C        0.03290    0.96350    0.43630    1.000
    H177     H        0.06530    0.95940    0.45870    1.000
    N28      N        0.00320    0.95780    0.45840    1.000
    C215     C        0.95190    0.97610    0.41670    1.000
    H178     H        0.92450    0.97780    0.43150    1.000
    C216     C        0.96310    0.98810    0.35220    1.000
    H179     H        0.94350    0.99960    0.31160    1.000
    C217     C        0.99080    0.93550    0.51300    1.000
    H180     H        0.96120    0.94120    0.52060    1.000
    H181     H        0.01560    0.93550    0.56210    1.000
    H182     H        0.98790    0.91550    0.49090    1.000
    C218     C        0.27911    0.89784    0.33370    1.000
    C219     C        0.30079    0.87147    0.38450    1.000
    C220     C        0.30092    0.84344    0.35360    1.000
    H183     H        0.28500    0.84030    0.30110    1.000
    C221     C        0.32280    0.82071    0.39600    1.000
    C222     C        0.34610    0.82427    0.47340    1.000
    C223     C        0.34810    0.85226    0.50530    1.000
    H184     H        0.36480    0.85540    0.55750    1.000
    C224     C        0.32540    0.87553    0.45980    1.000
    H185     H        0.32680    0.89480    0.48130    1.000
    C225     C        0.37450    0.79949    0.52050    1.000
    C226     C        0.41560    0.79154    0.50800    1.000
    H186     H        0.42760    0.80130    0.47240    1.000
    C227     C        0.43900    0.76646    0.55540    1.000
    H187     H        0.46530    0.75770    0.54550    1.000
    C228     C        0.42413    0.75492    0.61500    1.000
    C229     C        0.38620    0.76644    0.62910    1.000
    H188     H        0.37610    0.75930    0.66990    1.000
    C230     C        0.36220    0.78938    0.58120    1.000
    H189     H        0.33620    0.79830    0.59170    1.000
    C231     C        0.45274    0.73029    0.66350    1.000
    C232     C        0.30250    0.79060    0.36880    1.000
    H190     H        0.31750    0.78400    0.33070    1.000
    H191     H        0.31410    0.77700    0.41290    1.000
    N29      N        0.25180    0.78390    0.33520    1.000
    C233     C        0.21810    0.78820    0.38070    1.000
    H192     H        0.22360    0.79390    0.43230    1.000
    N30      N        0.18470    0.78260    0.33500    1.000
    C234     C        0.18750    0.76290    0.25510    1.000
    H193     H        0.16430    0.75220    0.21730    1.000
    C235     C        0.23580    0.76810    0.26490    1.000
    H194     H        0.25330    0.76230    0.23220    1.000
    C236     C        0.13760    0.77030    0.34420    1.000
    H195     H        0.11620    0.76480    0.29420    1.000
    H196     H        0.12300    0.78570    0.36700    1.000
    H197     H        0.14420    0.75270    0.37730    1.000
    C237     C        0.33337    0.94937    0.25160    1.000
    C238     C        0.38292    0.95163    0.24960    1.000
    C239     C        0.41514    0.96632    0.30320    1.000
    H198     H        0.40770    0.97350    0.34650    1.000
    C240     C        0.45926    0.97146    0.29760    1.000
    C241     C        0.47520    0.95483    0.24970    1.000
    C242     C        0.44391    0.93655    0.20160    1.000
    H199     H        0.45360    0.92480    0.16630    1.000
    C243     C        0.39818    0.93451    0.20260    1.000
    H200     H        0.37740    0.92080    0.16970    1.000
    C244     C        0.49750    0.99580    0.32070    1.000
    H201     H        0.52140    0.98940    0.29730    1.000
    H202     H        0.48270    0.01370    0.29190    1.000
    N31      N        0.52390    0.00700    0.39440    1.000
    C245     C        0.52420    0.04010    0.41120    1.000
    H203     H        0.50730    0.05550    0.37910    1.000
    N32      N        0.54970    0.04210    0.47200    1.000
    C246     C        0.57770    0.00960    0.50760    1.000
    H204     H        0.60320    0.00670    0.55260    1.000
    C247     C        0.55390    0.98860    0.45400    1.000
    H205     H        0.55670    0.96760    0.45660    1.000
    C248     C        0.57440    0.06810    0.52440    1.000
    H206     H        0.59740    0.06010    0.57010    1.000
    H207     H        0.55110    0.07990    0.53900    1.000
    H208     H        0.59030    0.08080    0.49690    1.000
    Cu13     Cu       0.76140    0.53999    0.81689    1.000
    Cu14     Cu       0.74096    0.57351    0.69381    1.000
    Cu15     Cu       0.52950    0.30876    0.21053    1.000
    O49      O        0.74159    0.50631    0.74754    1.000
    O50      O        0.72184    0.53485    0.64357    1.000
    O51      O        0.77958    0.57775    0.86920    1.000
    O52      O        0.76368    0.60668    0.76366    1.000
    O53      O        0.69583    0.54669    0.80762    1.000
    O54      O        0.67903    0.57695    0.70691    1.000
    O55      O        0.82355    0.53756    0.80497    1.000
    O56      O        0.80605    0.56568    0.69915    1.000
    O57      O        0.56469    0.33706    0.28820    1.000
    O58      O        0.50985    0.34088    0.34613    1.000
    O59      O        0.98672    0.77987    0.14623    1.000
    O60      O        0.94009    0.77592    0.22310    1.000
    C249     C        0.72452    0.51053    0.67730    1.000
    C250     C        0.70491    0.48443    0.62990    1.000
    C251     C        0.69786    0.45753    0.66390    1.000
    H209     H        0.70810    0.45570    0.71780    1.000
    C252     C        0.67600    0.43355    0.61940    1.000
    H210     H        0.67180    0.41550    0.64310    1.000
    C253     C        0.66032    0.43589    0.54030    1.000
    C254     C        0.66780    0.46221    0.50710    1.000
    H211     H        0.65860    0.46380    0.45320    1.000
    C255     C        0.68859    0.48622    0.55120    1.000
    H212     H        0.69170    0.50440    0.52700    1.000
    C256     C        0.63410    0.41139    0.49110    1.000
    C257     C        0.64998    0.39742    0.43860    1.000
    C258     C        0.62239    0.37633    0.38900    1.000
    H213     H        0.63390    0.36690    0.35230    1.000
    C259     C        0.57930    0.36918    0.39290    1.000
    C260     C        0.56270    0.38236    0.44820    1.000
    H214     H        0.53320    0.37660    0.45210    1.000
    C261     C        0.58860    0.40356    0.49700    1.000
    H215     H        0.57700    0.41280    0.53370    1.000
    C262     C        0.54882    0.34670    0.33720    1.000
    C263     C        0.69820    0.40060    0.43670    1.000
    H216     H        0.70030    0.41910    0.40890    1.000
    H217     H        0.70510    0.38380    0.40720    1.000
    N33      N        0.73400    0.40150    0.50950    1.000
    C264     C        0.74280    0.37390    0.55710    1.000
    H218     H        0.72670    0.35540    0.54780    1.000
    N34      N        0.77420    0.38100    0.60840    1.000
    C265     C        0.79400    0.41640    0.60830    1.000
    H219     H        0.81800    0.42670    0.64570    1.000
    C266     C        0.76460    0.42620    0.53660    1.000
    H220     H        0.76510    0.44480    0.51230    1.000
    C267     C        0.80110    0.36690    0.68680    1.000
    H221     H        0.82580    0.38060    0.71520    1.000
    H222     H        0.77940    0.36330    0.71590    1.000
    H223     H        0.81520    0.34800    0.67860    1.000
    C268     C        0.66896    0.56272    0.75780    1.000
    C269     C        0.61821    0.56365    0.75620    1.000
    C270     C        0.60187    0.54134    0.79360    1.000
    H224     H        0.62270    0.52650    0.82150    1.000
    C271     C        0.55533    0.54067    0.79030    1.000
    C272     C        0.52543    0.56397    0.75240    1.000
    C273     C        0.54273    0.58621    0.71770    1.000
    H225     H        0.52280    0.60200    0.69280    1.000
    C274     C        0.58901    0.58587    0.71890    1.000
    H226     H        0.60050    0.60110    0.69370    1.000
    C275     C        0.53560    0.51130    0.81350    1.000
    H227     H        0.56130    0.49790    0.84100    1.000
    H228     H        0.51540    0.50090    0.76800    1.000
    N35      N        0.50890    0.52070    0.86220    1.000
    C276     C        0.53290    0.53650    0.93630    1.000
    H229     H        0.56530    0.54060    0.95870    1.000
    N36      N        0.50320    0.54220    0.95840    1.000
    C277     C        0.45190    0.52390    0.91670    1.000
    H230     H        0.42450    0.52220    0.93150    1.000
    C278     C        0.46310    0.51190    0.85220    1.000
    H231     H        0.44350    0.50040    0.81160    1.000
    C279     C        0.49080    0.56450    0.01300    1.000
    H232     H        0.46120    0.55880    0.02060    1.000
    H233     H        0.51560    0.56450    0.06210    1.000
    H234     H        0.48790    0.58450    0.99090    1.000
    C280     C        0.77911    0.60216    0.83370    1.000
    C281     C        0.80079    0.62853    0.88450    1.000
    C282     C        0.80092    0.65656    0.85360    1.000
    H235     H        0.78500    0.65970    0.80110    1.000
    C283     C        0.82280    0.67929    0.89600    1.000
    C284     C        0.84610    0.67573    0.97340    1.000
    C285     C        0.84810    0.64774    0.00530    1.000
    H236     H        0.86480    0.64460    0.05750    1.000
    C286     C        0.82540    0.62447    0.95980    1.000
    H237     H        0.82680    0.60520    0.98130    1.000
    C287     C        0.87450    0.70051    0.02050    1.000
    C288     C        0.91560    0.70846    0.00800    1.000
    H238     H        0.92760    0.69870    0.97240    1.000
    C289     C        0.93900    0.73354    0.05540    1.000
    H239     H        0.96530    0.74230    0.04550    1.000
    C290     C        0.92413    0.74508    0.11500    1.000
    C291     C        0.88620    0.73356    0.12910    1.000
    H240     H        0.87610    0.74070    0.16990    1.000
    C292     C        0.86220    0.71062    0.08120    1.000
    H241     H        0.83620    0.70170    0.09170    1.000
    C293     C        0.95274    0.76971    0.16350    1.000
    C294     C        0.80250    0.70940    0.86880    1.000
    H242     H        0.81750    0.71600    0.83070    1.000
    H243     H        0.81410    0.72300    0.91290    1.000
    N37      N        0.75180    0.71610    0.83520    1.000
    C295     C        0.71810    0.71180    0.88070    1.000
    H244     H        0.72360    0.70610    0.93230    1.000
    N38      N        0.68470    0.71740    0.83500    1.000
    C296     C        0.68750    0.73710    0.75510    1.000
    H245     H        0.66430    0.74780    0.71730    1.000
    C297     C        0.73580    0.73190    0.76490    1.000
    H246     H        0.75330    0.73770    0.73220    1.000
    C298     C        0.63760    0.72970    0.84420    1.000
    H247     H        0.61620    0.73520    0.79420    1.000
    H248     H        0.62300    0.71430    0.86700    1.000
    H249     H        0.64420    0.74730    0.87730    1.000
    C299     C        0.83337    0.55063    0.75160    1.000
    C300     C        0.88292    0.54837    0.74960    1.000
    C301     C        0.91514    0.53368    0.80320    1.000
    H250     H        0.90770    0.52650    0.84650    1.000
    C302     C        0.95926    0.52854    0.79760    1.000
    C303     C        0.97520    0.54517    0.74970    1.000
    C304     C        0.94391    0.56345    0.70160    1.000
    H251     H        0.95360    0.57520    0.66630    1.000
    C305     C        0.89818    0.56549    0.70260    1.000
    H252     H        0.87740    0.57920    0.66970    1.000
    C306     C        0.99750    0.50420    0.82070    1.000
    H253     H        0.02140    0.51060    0.79730    1.000
    H254     H        0.98270    0.48630    0.79190    1.000
    N39      N        0.02390    0.49300    0.89440    1.000
    C307     C        0.02420    0.45990    0.91120    1.000
    H255     H        0.00730    0.44450    0.87910    1.000
    N40      N        0.04970    0.45790    0.97200    1.000
    C308     C        0.07770    0.49040    0.00760    1.000
    H256     H        0.10320    0.49330    0.05260    1.000
    C309     C        0.05390    0.51140    0.95400    1.000
    H257     H        0.05670    0.53240    0.95660    1.000
    C310     C        0.07440    0.43190    0.02440    1.000
    H258     H        0.09740    0.43990    0.07010    1.000
    H259     H        0.05110    0.42010    0.03900    1.000
    H260     H        0.09030    0.41920    0.99690    1.000
    Cu16     Cu       0.26140    0.03999    0.81689    1.000
    Cu17     Cu       0.24096    0.07351    0.69381    1.000
    Cu18     Cu       0.02950    0.80876    0.21053    1.000
    O61      O        0.24159    0.00631    0.74754    1.000
    O62      O        0.22184    0.03485    0.64357    1.000
    O63      O        0.27958    0.07775    0.86920    1.000
    O64      O        0.26368    0.10668    0.76366    1.000
    O65      O        0.19583    0.04669    0.80762    1.000
    O66      O        0.17903    0.07695    0.70691    1.000
    O67      O        0.32355    0.03756    0.80497    1.000
    O68      O        0.30605    0.06568    0.69915    1.000
    O69      O        0.06469    0.83706    0.28820    1.000
    O70      O        0.00985    0.84088    0.34613    1.000
    O71      O        0.48672    0.27987    0.14623    1.000
    O72      O        0.44009    0.27592    0.22310    1.000
    C311     C        0.22452    0.01053    0.67730    1.000
    C312     C        0.20491    0.98443    0.62990    1.000
    C313     C        0.19786    0.95753    0.66390    1.000
    H261     H        0.20810    0.95570    0.71780    1.000
    C314     C        0.17600    0.93355    0.61940    1.000
    H262     H        0.17180    0.91550    0.64310    1.000
    C315     C        0.16032    0.93589    0.54030    1.000
    C316     C        0.16780    0.96221    0.50710    1.000
    H263     H        0.15860    0.96380    0.45320    1.000
    C317     C        0.18859    0.98622    0.55120    1.000
    H264     H        0.19170    0.00440    0.52700    1.000
    C318     C        0.13410    0.91139    0.49110    1.000
    C319     C        0.14998    0.89742    0.43860    1.000
    C320     C        0.12239    0.87633    0.38900    1.000
    H265     H        0.13390    0.86690    0.35230    1.000
    C321     C        0.07930    0.86918    0.39290    1.000
    C322     C        0.06270    0.88236    0.44820    1.000
    H266     H        0.03320    0.87660    0.45210    1.000
    C323     C        0.08860    0.90356    0.49700    1.000
    H267     H        0.07700    0.91280    0.53370    1.000
    C324     C        0.04882    0.84670    0.33720    1.000
    C325     C        0.19820    0.90060    0.43670    1.000
    H268     H        0.20030    0.91910    0.40890    1.000
    H269     H        0.20510    0.88380    0.40720    1.000
    N41      N        0.23400    0.90150    0.50950    1.000
    C326     C        0.24280    0.87390    0.55710    1.000
    H270     H        0.22670    0.85540    0.54780    1.000
    N42      N        0.27420    0.88100    0.60840    1.000
    C327     C        0.29400    0.91640    0.60830    1.000
    H271     H        0.31800    0.92670    0.64570    1.000
    C328     C        0.26460    0.92620    0.53660    1.000
    H272     H        0.26510    0.94480    0.51230    1.000
    C329     C        0.30110    0.86690    0.68680    1.000
    H273     H        0.32580    0.88060    0.71520    1.000
    H274     H        0.27940    0.86330    0.71590    1.000
    H275     H        0.31520    0.84800    0.67860    1.000
    C330     C        0.16896    0.06272    0.75780    1.000
    C331     C        0.11821    0.06365    0.75620    1.000
    C332     C        0.10187    0.04134    0.79360    1.000
    H276     H        0.12270    0.02650    0.82150    1.000
    C333     C        0.05533    0.04067    0.79030    1.000
    C334     C        0.02543    0.06397    0.75240    1.000
    C335     C        0.04273    0.08621    0.71770    1.000
    H277     H        0.02280    0.10200    0.69280    1.000
    C336     C        0.08901    0.08587    0.71890    1.000
    H278     H        0.10050    0.10110    0.69370    1.000
    C337     C        0.03560    0.01130    0.81350    1.000
    H279     H        0.06130    0.99790    0.84100    1.000
    H280     H        0.01540    0.00090    0.76800    1.000
    N43      N        0.00890    0.02070    0.86220    1.000
    C338     C        0.03290    0.03650    0.93630    1.000
    H281     H        0.06530    0.04060    0.95870    1.000
    N44      N        0.00320    0.04220    0.95840    1.000
    C339     C        0.95190    0.02390    0.91670    1.000
    H282     H        0.92450    0.02220    0.93150    1.000
    C340     C        0.96310    0.01190    0.85220    1.000
    H283     H        0.94350    0.00040    0.81160    1.000
    C341     C        0.99080    0.06450    0.01300    1.000
    H284     H        0.96120    0.05880    0.02060    1.000
    H285     H        0.01560    0.06450    0.06210    1.000
    H286     H        0.98790    0.08450    0.99090    1.000
    C342     C        0.27911    0.10216    0.83370    1.000
    C343     C        0.30079    0.12853    0.88450    1.000
    C344     C        0.30092    0.15656    0.85360    1.000
    H287     H        0.28500    0.15970    0.80110    1.000
    C345     C        0.32280    0.17929    0.89600    1.000
    C346     C        0.34610    0.17573    0.97340    1.000
    C347     C        0.34810    0.14774    0.00530    1.000
    H288     H        0.36480    0.14460    0.05750    1.000
    C348     C        0.32540    0.12447    0.95980    1.000
    H289     H        0.32680    0.10520    0.98130    1.000
    C349     C        0.37450    0.20051    0.02050    1.000
    C350     C        0.41560    0.20846    0.00800    1.000
    H290     H        0.42760    0.19870    0.97240    1.000
    C351     C        0.43900    0.23354    0.05540    1.000
    H291     H        0.46530    0.24230    0.04550    1.000
    C352     C        0.42413    0.24508    0.11500    1.000
    C353     C        0.38620    0.23356    0.12910    1.000
    H292     H        0.37610    0.24070    0.16990    1.000
    C354     C        0.36220    0.21062    0.08120    1.000
    H293     H        0.33620    0.20170    0.09170    1.000
    C355     C        0.45274    0.26971    0.16350    1.000
    C356     C        0.30250    0.20940    0.86880    1.000
    H294     H        0.31750    0.21600    0.83070    1.000
    H295     H        0.31410    0.22300    0.91290    1.000
    N45      N        0.25180    0.21610    0.83520    1.000
    C357     C        0.21810    0.21180    0.88070    1.000
    H296     H        0.22360    0.20610    0.93230    1.000
    N46      N        0.18470    0.21740    0.83500    1.000
    C358     C        0.18750    0.23710    0.75510    1.000
    H297     H        0.16430    0.24780    0.71730    1.000
    C359     C        0.23580    0.23190    0.76490    1.000
    H298     H        0.25330    0.23770    0.73220    1.000
    C360     C        0.13760    0.22970    0.84420    1.000
    H299     H        0.11620    0.23520    0.79420    1.000
    H300     H        0.12300    0.21430    0.86700    1.000
    H301     H        0.14420    0.24730    0.87730    1.000
    C361     C        0.33337    0.05063    0.75160    1.000
    C362     C        0.38292    0.04837    0.74960    1.000
    C363     C        0.41514    0.03368    0.80320    1.000
    H302     H        0.40770    0.02650    0.84650    1.000
    C364     C        0.45926    0.02854    0.79760    1.000
    C365     C        0.47520    0.04517    0.74970    1.000
    C366     C        0.44391    0.06345    0.70160    1.000
    H303     H        0.45360    0.07520    0.66630    1.000
    C367     C        0.39818    0.06549    0.70260    1.000
    H304     H        0.37740    0.07920    0.66970    1.000
    C368     C        0.49750    0.00420    0.82070    1.000
    H305     H        0.52140    0.01060    0.79730    1.000
    H306     H        0.48270    0.98630    0.79190    1.000
    N47      N        0.52390    0.99300    0.89440    1.000
    C369     C        0.52420    0.95990    0.91120    1.000
    H307     H        0.50730    0.94450    0.87910    1.000
    N48      N        0.54970    0.95790    0.97200    1.000
    C370     C        0.57770    0.99040    0.00760    1.000
    H308     H        0.60320    0.99330    0.05260    1.000
    C371     C        0.55390    0.01140    0.95400    1.000
    H309     H        0.55670    0.03240    0.95660    1.000
    C372     C        0.57440    0.93190    0.02440    1.000
    H310     H        0.59740    0.93990    0.07010    1.000
    H311     H        0.55110    0.92010    0.03900    1.000
    H312     H        0.59030    0.91920    0.99690    1.000
    Cu19     Cu       0.23860    0.53999    0.68311    1.000
    Cu20     Cu       0.25904    0.57351    0.80619    1.000
    Cu21     Cu       0.47050    0.30876    0.28947    1.000
    O73      O        0.25841    0.50631    0.75246    1.000
    O74      O        0.27816    0.53485    0.85643    1.000
    O75      O        0.22042    0.57775    0.63080    1.000
    O76      O        0.23632    0.60668    0.73634    1.000
    O77      O        0.30417    0.54669    0.69238    1.000
    O78      O        0.32097    0.57695    0.79309    1.000
    O79      O        0.17645    0.53756    0.69503    1.000
    O80      O        0.19395    0.56568    0.80085    1.000
    O81      O        0.43531    0.33706    0.21180    1.000
    O82      O        0.49015    0.34088    0.15387    1.000
    O83      O        0.01328    0.77987    0.35377    1.000
    O84      O        0.05991    0.77592    0.27690    1.000
    C373     C        0.27548    0.51053    0.82270    1.000
    C374     C        0.29509    0.48443    0.87010    1.000
    C375     C        0.30214    0.45753    0.83610    1.000
    H313     H        0.29190    0.45570    0.78220    1.000
    C376     C        0.32400    0.43355    0.88060    1.000
    H314     H        0.32820    0.41550    0.85690    1.000
    C377     C        0.33968    0.43589    0.95970    1.000
    C378     C        0.33220    0.46221    0.99290    1.000
    H315     H        0.34140    0.46380    0.04680    1.000
    C379     C        0.31141    0.48622    0.94880    1.000
    H316     H        0.30830    0.50440    0.97300    1.000
    C380     C        0.36590    0.41139    0.00890    1.000
    C381     C        0.35002    0.39742    0.06140    1.000
    C382     C        0.37761    0.37633    0.11100    1.000
    H317     H        0.36610    0.36690    0.14770    1.000
    C383     C        0.42070    0.36918    0.10710    1.000
    C384     C        0.43730    0.38236    0.05180    1.000
    H318     H        0.46680    0.37660    0.04790    1.000
    C385     C        0.41140    0.40356    0.00300    1.000
    H319     H        0.42300    0.41280    0.96630    1.000
    C386     C        0.45118    0.34670    0.16280    1.000
    C387     C        0.30180    0.40060    0.06330    1.000
    H320     H        0.29970    0.41910    0.09110    1.000
    H321     H        0.29490    0.38380    0.09280    1.000
    N49      N        0.26600    0.40150    0.99050    1.000
    C388     C        0.25720    0.37390    0.94290    1.000
    H322     H        0.27330    0.35540    0.95220    1.000
    N50      N        0.22580    0.38100    0.89160    1.000
    C389     C        0.20600    0.41640    0.89170    1.000
    H323     H        0.18200    0.42670    0.85430    1.000
    C390     C        0.23540    0.42620    0.96340    1.000
    H324     H        0.23490    0.44480    0.98770    1.000
    C391     C        0.19890    0.36690    0.81320    1.000
    H325     H        0.17420    0.38060    0.78480    1.000
    H326     H        0.22060    0.36330    0.78410    1.000
    H327     H        0.18480    0.34800    0.82140    1.000
    C392     C        0.33104    0.56272    0.74220    1.000
    C393     C        0.38179    0.56365    0.74380    1.000
    C394     C        0.39813    0.54134    0.70640    1.000
    H328     H        0.37730    0.52650    0.67850    1.000
    C395     C        0.44467    0.54067    0.70970    1.000
    C396     C        0.47457    0.56397    0.74760    1.000
    C397     C        0.45727    0.58621    0.78230    1.000
    H329     H        0.47720    0.60200    0.80720    1.000
    C398     C        0.41099    0.58587    0.78110    1.000
    H330     H        0.39950    0.60110    0.80630    1.000
    C399     C        0.46440    0.51130    0.68650    1.000
    H331     H        0.43870    0.49790    0.65900    1.000
    H332     H        0.48460    0.50090    0.73200    1.000
    N51      N        0.49110    0.52070    0.63780    1.000
    C400     C        0.46710    0.53650    0.56370    1.000
    H333     H        0.43470    0.54060    0.54130    1.000
    N52      N        0.49680    0.54220    0.54160    1.000
    C401     C        0.54810    0.52390    0.58330    1.000
    H334     H        0.57550    0.52220    0.56850    1.000
    C402     C        0.53690    0.51190    0.64780    1.000
    H335     H        0.55650    0.50040    0.68840    1.000
    C403     C        0.50920    0.56450    0.48700    1.000
    H336     H        0.53880    0.55880    0.47940    1.000
    H337     H        0.48440    0.56450    0.43790    1.000
    H338     H        0.51210    0.58450    0.50910    1.000
    C404     C        0.22089    0.60216    0.66630    1.000
    C405     C        0.19921    0.62853    0.61550    1.000
    C406     C        0.19908    0.65656    0.64640    1.000
    H339     H        0.21500    0.65970    0.69890    1.000
    C407     C        0.17720    0.67929    0.60400    1.000
    C408     C        0.15390    0.67573    0.52660    1.000
    C409     C        0.15190    0.64774    0.49470    1.000
    H340     H        0.13520    0.64460    0.44250    1.000
    C410     C        0.17460    0.62447    0.54020    1.000
    H341     H        0.17320    0.60520    0.51870    1.000
    C411     C        0.12550    0.70051    0.47950    1.000
    C412     C        0.08440    0.70846    0.49200    1.000
    H342     H        0.07240    0.69870    0.52760    1.000
    C413     C        0.06100    0.73354    0.44460    1.000
    H343     H        0.03470    0.74230    0.45450    1.000
    C414     C        0.07587    0.74508    0.38500    1.000
    C415     C        0.11380    0.73356    0.37090    1.000
    H344     H        0.12390    0.74070    0.33010    1.000
    C416     C        0.13780    0.71062    0.41880    1.000
    H345     H        0.16380    0.70170    0.40830    1.000
    C417     C        0.04726    0.76971    0.33650    1.000
    C418     C        0.19750    0.70940    0.63120    1.000
    H346     H        0.18250    0.71600    0.66930    1.000
    H347     H        0.18590    0.72300    0.58710    1.000
    N53      N        0.24820    0.71610    0.66480    1.000
    C419     C        0.28190    0.71180    0.61930    1.000
    H348     H        0.27640    0.70610    0.56770    1.000
    N54      N        0.31530    0.71740    0.66500    1.000
    C420     C        0.31250    0.73710    0.74490    1.000
    H349     H        0.33570    0.74780    0.78270    1.000
    C421     C        0.26420    0.73190    0.73510    1.000
    H350     H        0.24670    0.73770    0.76780    1.000
    C422     C        0.36240    0.72970    0.65580    1.000
    H351     H        0.38380    0.73520    0.70580    1.000
    H352     H        0.37700    0.71430    0.63300    1.000
    H353     H        0.35580    0.74730    0.62270    1.000
    C423     C        0.16663    0.55063    0.74840    1.000
    C424     C        0.11708    0.54837    0.75040    1.000
    C425     C        0.08486    0.53368    0.69680    1.000
    H354     H        0.09230    0.52650    0.65350    1.000
    C426     C        0.04074    0.52854    0.70240    1.000
    C427     C        0.02480    0.54517    0.75030    1.000
    C428     C        0.05609    0.56345    0.79840    1.000
    H355     H        0.04640    0.57520    0.83370    1.000
    C429     C        0.10182    0.56549    0.79740    1.000
    H356     H        0.12260    0.57920    0.83030    1.000
    C430     C        0.00250    0.50420    0.67930    1.000
    H357     H        0.97860    0.51060    0.70270    1.000
    H358     H        0.01730    0.48630    0.70810    1.000
    N55      N        0.97610    0.49300    0.60560    1.000
    C431     C        0.97580    0.45990    0.58880    1.000
    H359     H        0.99270    0.44450    0.62090    1.000
    N56      N        0.95030    0.45790    0.52800    1.000
    C432     C        0.92230    0.49040    0.49240    1.000
    H360     H        0.89680    0.49330    0.44740    1.000
    C433     C        0.94610    0.51140    0.54600    1.000
    H361     H        0.94330    0.53240    0.54340    1.000
    C434     C        0.92560    0.43190    0.47560    1.000
    H362     H        0.90260    0.43990    0.42990    1.000
    H363     H        0.94890    0.42010    0.46100    1.000
    H364     H        0.90970    0.41920    0.50310    1.000
    Cu22     Cu       0.73860    0.03999    0.68311    1.000
    Cu23     Cu       0.75904    0.07351    0.80619    1.000
    Cu24     Cu       0.97050    0.80876    0.28947    1.000
    O85      O        0.75841    0.00631    0.75246    1.000
    O86      O        0.77816    0.03485    0.85643    1.000
    O87      O        0.72042    0.07775    0.63080    1.000
    O88      O        0.73632    0.10668    0.73634    1.000
    O89      O        0.80417    0.04669    0.69238    1.000
    O90      O        0.82097    0.07695    0.79309    1.000
    O91      O        0.67645    0.03756    0.69503    1.000
    O92      O        0.69395    0.06568    0.80085    1.000
    O93      O        0.93531    0.83706    0.21180    1.000
    O94      O        0.99015    0.84088    0.15387    1.000
    O95      O        0.51328    0.27987    0.35377    1.000
    O96      O        0.55991    0.27592    0.27690    1.000
    C435     C        0.77548    0.01053    0.82270    1.000
    C436     C        0.79509    0.98443    0.87010    1.000
    C437     C        0.80214    0.95753    0.83610    1.000
    H365     H        0.79190    0.95570    0.78220    1.000
    C438     C        0.82400    0.93355    0.88060    1.000
    H366     H        0.82820    0.91550    0.85690    1.000
    C439     C        0.83968    0.93589    0.95970    1.000
    C440     C        0.83220    0.96221    0.99290    1.000
    H367     H        0.84140    0.96380    0.04680    1.000
    C441     C        0.81141    0.98622    0.94880    1.000
    H368     H        0.80830    0.00440    0.97300    1.000
    C442     C        0.86590    0.91139    0.00890    1.000
    C443     C        0.85002    0.89742    0.06140    1.000
    C444     C        0.87761    0.87633    0.11100    1.000
    H369     H        0.86610    0.86690    0.14770    1.000
    C445     C        0.92070    0.86918    0.10710    1.000
    C446     C        0.93730    0.88236    0.05180    1.000
    H370     H        0.96680    0.87660    0.04790    1.000
    C447     C        0.91140    0.90356    0.00300    1.000
    H371     H        0.92300    0.91280    0.96630    1.000
    C448     C        0.95118    0.84670    0.16280    1.000
    C449     C        0.80180    0.90060    0.06330    1.000
    H372     H        0.79970    0.91910    0.09110    1.000
    H373     H        0.79490    0.88380    0.09280    1.000
    N57      N        0.76600    0.90150    0.99050    1.000
    C450     C        0.75720    0.87390    0.94290    1.000
    H374     H        0.77330    0.85540    0.95220    1.000
    N58      N        0.72580    0.88100    0.89160    1.000
    C451     C        0.70600    0.91640    0.89170    1.000
    H375     H        0.68200    0.92670    0.85430    1.000
    C452     C        0.73540    0.92620    0.96340    1.000
    H376     H        0.73490    0.94480    0.98770    1.000
    C453     C        0.69890    0.86690    0.81320    1.000
    H377     H        0.67420    0.88060    0.78480    1.000
    H378     H        0.72060    0.86330    0.78410    1.000
    H379     H        0.68480    0.84800    0.82140    1.000
    C454     C        0.83104    0.06272    0.74220    1.000
    C455     C        0.88179    0.06365    0.74380    1.000
    C456     C        0.89813    0.04134    0.70640    1.000
    H380     H        0.87730    0.02650    0.67850    1.000
    C457     C        0.94467    0.04067    0.70970    1.000
    C458     C        0.97457    0.06397    0.74760    1.000
    C459     C        0.95727    0.08621    0.78230    1.000
    H381     H        0.97720    0.10200    0.80720    1.000
    C460     C        0.91099    0.08587    0.78110    1.000
    H382     H        0.89950    0.10110    0.80630    1.000
    C461     C        0.96440    0.01130    0.68650    1.000
    H383     H        0.93870    0.99790    0.65900    1.000
    H384     H        0.98460    0.00090    0.73200    1.000
    N59      N        0.99110    0.02070    0.63780    1.000
    C462     C        0.96710    0.03650    0.56370    1.000
    H385     H        0.93470    0.04060    0.54130    1.000
    N60      N        0.99680    0.04220    0.54160    1.000
    C463     C        0.04810    0.02390    0.58330    1.000
    H386     H        0.07550    0.02220    0.56850    1.000
    C464     C        0.03690    0.01190    0.64780    1.000
    H387     H        0.05650    0.00040    0.68840    1.000
    C465     C        0.00920    0.06450    0.48700    1.000
    H388     H        0.03880    0.05880    0.47940    1.000
    H389     H        0.98440    0.06450    0.43790    1.000
    H390     H        0.01210    0.08450    0.50910    1.000
    C466     C        0.72089    0.10216    0.66630    1.000
    C467     C        0.69921    0.12853    0.61550    1.000
    C468     C        0.69908    0.15656    0.64640    1.000
    H391     H        0.71500    0.15970    0.69890    1.000
    C469     C        0.67720    0.17929    0.60400    1.000
    C470     C        0.65390    0.17573    0.52660    1.000
    C471     C        0.65190    0.14774    0.49470    1.000
    H392     H        0.63520    0.14460    0.44250    1.000
    C472     C        0.67460    0.12447    0.54020    1.000
    H393     H        0.67320    0.10520    0.51870    1.000
    C473     C        0.62550    0.20051    0.47950    1.000
    C474     C        0.58440    0.20846    0.49200    1.000
    H394     H        0.57240    0.19870    0.52760    1.000
    C475     C        0.56100    0.23354    0.44460    1.000
    H395     H        0.53470    0.24230    0.45450    1.000
    C476     C        0.57587    0.24508    0.38500    1.000
    C477     C        0.61380    0.23356    0.37090    1.000
    H396     H        0.62390    0.24070    0.33010    1.000
    C478     C        0.63780    0.21062    0.41880    1.000
    H397     H        0.66380    0.20170    0.40830    1.000
    C479     C        0.54726    0.26971    0.33650    1.000
    C480     C        0.69750    0.20940    0.63120    1.000
    H398     H        0.68250    0.21600    0.66930    1.000
    H399     H        0.68590    0.22300    0.58710    1.000
    N61      N        0.74820    0.21610    0.66480    1.000
    C481     C        0.78190    0.21180    0.61930    1.000
    H400     H        0.77640    0.20610    0.56770    1.000
    N62      N        0.81530    0.21740    0.66500    1.000
    C482     C        0.81250    0.23710    0.74490    1.000
    H401     H        0.83570    0.24780    0.78270    1.000
    C483     C        0.76420    0.23190    0.73510    1.000
    H402     H        0.74670    0.23770    0.76780    1.000
    C484     C        0.86240    0.22970    0.65580    1.000
    H403     H        0.88380    0.23520    0.70580    1.000
    H404     H        0.87700    0.21430    0.63300    1.000
    H405     H        0.85580    0.24730    0.62270    1.000
    C485     C        0.66663    0.05063    0.74840    1.000
    C486     C        0.61708    0.04837    0.75040    1.000
    C487     C        0.58486    0.03368    0.69680    1.000
    H406     H        0.59230    0.02650    0.65350    1.000
    C488     C        0.54074    0.02854    0.70240    1.000
    C489     C        0.52480    0.04517    0.75030    1.000
    C490     C        0.55609    0.06345    0.79840    1.000
    H407     H        0.54640    0.07520    0.83370    1.000
    C491     C        0.60182    0.06549    0.79740    1.000
    H408     H        0.62260    0.07920    0.83030    1.000
    C492     C        0.50250    0.00420    0.67930    1.000
    H409     H        0.47860    0.01060    0.70270    1.000
    H410     H        0.51730    0.98630    0.70810    1.000
    N63      N        0.47610    0.99300    0.60560    1.000
    C493     C        0.47580    0.95990    0.58880    1.000
    H411     H        0.49270    0.94450    0.62090    1.000
    N64      N        0.45030    0.95790    0.52800    1.000
    C494     C        0.42230    0.99040    0.49240    1.000
    H412     H        0.39680    0.99330    0.44740    1.000
    C495     C        0.44610    0.01140    0.54600    1.000
    H413     H        0.44330    0.03240    0.54340    1.000
    C496     C        0.42560    0.93190    0.47560    1.000
    H414     H        0.40260    0.93990    0.42990    1.000
    H415     H        0.44890    0.92010    0.46100    1.000
    H416     H        0.40970    0.91920    0.50310    1.000
