# CIF file generated by openbabel 3.1.0, see https://openbabel.org
data_I
_chemical_name_common 'image0'
_cell_length_a 9.7561
_cell_length_b 10.2852
_cell_length_c 11.0465
_cell_angle_alpha 95.127
_cell_angle_beta 95.109
_cell_angle_gamma 105.974
_space_group_name_H-M_alt 'P 1'
_space_group_name_Hall 'P 1'
loop_
    _symmetry_equiv_pos_as_xyz
    x,y,z
loop_
    _atom_site_label
    _atom_site_type_symbol
    _atom_site_fract_x
    _atom_site_fract_y
    _atom_site_fract_z
    _atom_site_occupancy
    U1       U        0.33279    0.38788    0.36936    1.000
    U2       U        0.13500    0.17206    0.82735    1.000
    P1       P        0.05420    0.18340    0.14520    1.000
    P2       P        0.63270    0.54130    0.29040    1.000
    O1       O        0.03380    0.16470    0.00700    1.000
    O2       O        0.20690    0.26560    0.19640    1.000
    O3       O        0.01100    0.04910    0.20040    1.000
    O4       O        0.11280    0.27350    0.43650    1.000
    O5       O        0.89180    0.18860    0.47980    1.000
    O6       O        0.69440    0.68680    0.27350    1.000
    O7       O        0.48840    0.47150    0.21210    1.000
    O8       O        0.60250    0.52140    0.42240    1.000
    O9       O        0.64670    0.40600    0.93810    1.000
    H1       H        0.65260    0.44650    0.87720    1.000
    O10      O        0.73610    0.61000    0.04170    1.000
    C1       C        0.94070    0.28640    0.19110    1.000
    C2       C        0.87220    0.34140    0.09970    1.000
    H2       H        0.88570    0.32340    0.01830    1.000
    C3       C        0.78320    0.42370    0.13010    1.000
    C4       C        0.75360    0.44590    0.25030    1.000
    C5       C        0.82480    0.38520    0.34150    1.000
    H3       H        0.80730    0.39790    0.42250    1.000
    C6       C        0.91540    0.31120    0.31380    1.000
    C7       C        0.98020    0.25700    0.41810    1.000
    C8       C        0.72140    0.48680    0.03150    1.000
    U3       U        0.66721    0.61212    0.63064    1.000
    U4       U        0.86500    0.82794    0.17265    1.000
    P3       P        0.94580    0.81660    0.85480    1.000
    P4       P        0.36730    0.45870    0.70960    1.000
    O11      O        0.96620    0.83530    0.99300    1.000
    O12      O        0.79310    0.73440    0.80360    1.000
    O13      O        0.98900    0.95090    0.79960    1.000
    O14      O        0.88720    0.72650    0.56350    1.000
    O15      O        0.10820    0.81140    0.52020    1.000
    O16      O        0.30560    0.31320    0.72650    1.000
    O17      O        0.51160    0.52850    0.78790    1.000
    O18      O        0.39750    0.47860    0.57760    1.000
    O19      O        0.35330    0.59400    0.06190    1.000
    H4       H        0.34740    0.55350    0.12280    1.000
    O20      O        0.26390    0.39000    0.95830    1.000
    C9       C        0.05930    0.71360    0.80890    1.000
    C10      C        0.12780    0.65860    0.90030    1.000
    H5       H        0.11430    0.67660    0.98170    1.000
    C11      C        0.21680    0.57630    0.86990    1.000
    C12      C        0.24640    0.55410    0.74970    1.000
    C13      C        0.17520    0.61480    0.65850    1.000
    H6       H        0.19270    0.60210    0.57750    1.000
    C14      C        0.08460    0.68880    0.68620    1.000
    C15      C        0.01980    0.74300    0.58190    1.000
    C16      C        0.27860    0.51320    0.96850    1.000
