# CIF file generated by openbabel 3.1.0, see https://openbabel.org
data_I
_chemical_name_common 'image0'
_cell_length_a 5.0794
_cell_length_b 15.2154
_cell_length_c 16.3604
_cell_angle_alpha 90
_cell_angle_beta 95.696
_cell_angle_gamma 90
_space_group_name_H-M_alt 'P 1'
_space_group_name_Hall 'P 1'
loop_
    _symmetry_equiv_pos_as_xyz
    x,y,z
loop_
    _atom_site_label
    _atom_site_type_symbol
    _atom_site_fract_x
    _atom_site_fract_y
    _atom_site_fract_z
    _atom_site_occupancy
    Co1      Co       0.34531    0.19683    0.08150    1.000
    Co2      Co       0.96517    0.32292    0.21633    1.000
    Co3      Co       0.99154    0.92892    0.18005    1.000
    P1       P        0.41477    0.39932    0.13006    1.000
    P2       P        0.92488    0.13034    0.16225    1.000
    P3       P        0.52525    0.88622    0.08784    1.000
    O1       O        0.30720    0.38624    0.21620    1.000
    O2       O        0.29260    0.32627    0.07351    1.000
    O3       O        0.71630    0.38990    0.14293    1.000
    O4       O        0.33350    0.48800    0.09607    1.000
    O5       O        0.03070    0.11464    0.07757    1.000
    O6       O        0.96750    0.04994    0.21735    1.000
    O7       O        0.10190    0.20543    0.20106    1.000
    O8       O        0.63740    0.15830    0.15790    1.000
    O9       O        0.24480    0.92096    0.09495    1.000
    O10      O        0.65290    0.85468    0.17465    1.000
    O11      O        0.52210    0.80917    0.02908    1.000
    O12      O        0.71060    0.95977    0.06687    1.000
    Co4      Co       0.15469    0.69683    0.41850    1.000
    Co5      Co       0.53483    0.82292    0.28367    1.000
    Co6      Co       0.50846    0.42892    0.31995    1.000
    P4       P        0.08523    0.89932    0.36994    1.000
    P5       P        0.57512    0.63034    0.33775    1.000
    P6       P        0.97475    0.38622    0.41216    1.000
    O13      O        0.19280    0.88624    0.28380    1.000
    O14      O        0.20740    0.82627    0.42649    1.000
    O15      O        0.78370    0.88990    0.35707    1.000
    O16      O        0.16650    0.98800    0.40393    1.000
    O17      O        0.46930    0.61464    0.42243    1.000
    O18      O        0.53250    0.54994    0.28265    1.000
    O19      O        0.39810    0.70543    0.29894    1.000
    O20      O        0.86260    0.65830    0.34210    1.000
    O21      O        0.25520    0.42096    0.40505    1.000
    O22      O        0.84710    0.35468    0.32535    1.000
    O23      O        0.97790    0.30917    0.47092    1.000
    O24      O        0.78940    0.45977    0.43313    1.000
    Co7      Co       0.65469    0.80317    0.91850    1.000
    Co8      Co       0.03483    0.67708    0.78367    1.000
    Co9      Co       0.00846    0.07108    0.81995    1.000
    P7       P        0.58523    0.60068    0.86994    1.000
    P8       P        0.07512    0.86966    0.83775    1.000
    P9       P        0.47475    0.11378    0.91216    1.000
    O25      O        0.69280    0.61376    0.78380    1.000
    O26      O        0.70740    0.67373    0.92649    1.000
    O27      O        0.28370    0.61010    0.85707    1.000
    O28      O        0.66650    0.51200    0.90393    1.000
    O29      O        0.96930    0.88536    0.92243    1.000
    O30      O        0.03250    0.95006    0.78265    1.000
    O31      O        0.89810    0.79457    0.79894    1.000
    O32      O        0.36260    0.84170    0.84210    1.000
    O33      O        0.75520    0.07904    0.90505    1.000
    O34      O        0.34710    0.14532    0.82535    1.000
    O35      O        0.47790    0.19083    0.97092    1.000
    O36      O        0.28940    0.04023    0.93313    1.000
    Co10     Co       0.84531    0.30317    0.58150    1.000
    Co11     Co       0.46517    0.17708    0.71633    1.000
    Co12     Co       0.49154    0.57108    0.68005    1.000
    P10      P        0.91477    0.10068    0.63006    1.000
    P11      P        0.42488    0.36966    0.66225    1.000
    P12      P        0.02525    0.61378    0.58784    1.000
    O37      O        0.80720    0.11376    0.71620    1.000
    O38      O        0.79260    0.17373    0.57351    1.000
    O39      O        0.21630    0.11010    0.64293    1.000
    O40      O        0.83350    0.01200    0.59607    1.000
    O41      O        0.53070    0.38536    0.57757    1.000
    O42      O        0.46750    0.45006    0.71735    1.000
    O43      O        0.60190    0.29457    0.70106    1.000
    O44      O        0.13740    0.34170    0.65790    1.000
    O45      O        0.74480    0.57904    0.59495    1.000
    O46      O        0.15290    0.64532    0.67465    1.000
    O47      O        0.02210    0.69083    0.52908    1.000
    O48      O        0.21060    0.54023    0.56687    1.000
    Co13     Co       0.00000    0.00000    0.00000    1.000
    Co14     Co       0.50000    0.50000    0.50000    1.000
