# CIF file generated by openbabel 3.1.0, see https://openbabel.org
data_I
_chemical_name_common 'image0'
_cell_length_a 18.5055
_cell_length_b 18.5055
_cell_length_c 22.556
_cell_angle_alpha 90
_cell_angle_beta 90
_cell_angle_gamma 120
_space_group_name_H-M_alt 'P 1'
_space_group_name_Hall 'P 1'
loop_
    _symmetry_equiv_pos_as_xyz
    x,y,z
loop_
    _atom_site_label
    _atom_site_type_symbol
    _atom_site_fract_x
    _atom_site_fract_y
    _atom_site_fract_z
    _atom_site_occupancy
    Ag1      Ag       0.89287    0.14668    0.34571    1.000
    N1       N        0.62950    0.81460    0.46310    1.000
    C1       C        0.71410    0.99990    0.37890    1.000
    C2       C        0.62910    0.74870    0.49880    1.000
    H1       H        0.68530    0.75450    0.49780    1.000
    H2       H        0.58920    0.69380    0.48140    1.000
    N2       N        0.57450    0.88300    0.41790    1.000
    O1       O        0.64000    0.84020    0.64580    1.000
    N3       N        0.68970    0.04770    0.35180    1.000
    H3       H        0.72660    0.09390    0.33400    1.000
    H4       H        0.63660    0.03320    0.35160    1.000
    C3       C        0.66330    0.83110    0.59570    1.000
    C4       C        0.69370    0.88140    0.43640    1.000
    C5       C        0.60470    0.75160    0.56310    1.000
    H5       H        0.54800    0.74450    0.56360    1.000
    H6       H        0.60220    0.70380    0.58470    1.000
    C6       C        0.66030    0.92450    0.40870    1.000
    N4       N        0.77590    0.90450    0.43500    1.000
    Ag2      Ag       0.47397    0.90088    0.38519    1.000
    C7       C        0.76790    0.15350    0.50390    1.000
    H7       H        0.72220    0.10990    0.47990    1.000
    H8       H        0.76900    0.20680    0.49650    1.000
    O2       O        0.87680    0.11880    0.50640    1.000
    O3       O        0.89170    0.21510    0.44450    1.000
    C8       C        0.85100    0.16230    0.48330    1.000
    Ag3      Ag       0.82012    0.00273    0.59868    1.000
    Ag4      Ag       0.83540    0.83910    0.47339    1.000
    O4       O        0.73110    0.87880    0.57050    1.000
    C9       C        0.82250    0.97560    0.40600    1.000
    H9       H        0.88070    0.99500    0.40430    1.000
    C10      C        0.83130    0.27230    0.61770    1.000
    H10      H        0.79610    0.29170    0.60270    1.000
    C11      C        0.93020    0.26760    0.66180    1.000
    N5       N        0.89620    0.31840    0.64980    1.000
    N6       N        0.05160    0.35030    0.72160    1.000
    H11      H        0.09510    0.35460    0.74050    1.000
    H12      H        0.04110    0.39170    0.72240    1.000
    C12      C        0.00200    0.28180    0.69210    1.000
    C13      C        0.88300    0.19190    0.63450    1.000
    N7       N        0.89700    0.12690    0.63580    1.000
    N8       N        0.02000    0.21810    0.69180    1.000
    N9       N        0.81740    0.19490    0.60700    1.000
    C14      C        0.96820    0.14650    0.66540    1.000
    H13      H        0.98250    0.10390    0.66760    1.000
    C15      C        0.74910    0.13100    0.56990    1.000
    H14      H        0.69570    0.12780    0.58060    1.000
    H15      H        0.74350    0.07570    0.57720    1.000
    C16      C        0.55940    0.81990    0.45050    1.000
    H16      H        0.50520    0.78090    0.46460    1.000
    N10      N        0.79600    0.02290    0.37890    1.000
    Ag5      Ag       0.55954    0.48001    0.67904    1.000
    N11      N        0.29617    0.14793    0.79643    1.000
    C17      C        0.38077    0.33323    0.71223    1.000
    C18      C        0.29577    0.08203    0.83213    1.000
    H17      H        0.35197    0.08783    0.83113    1.000
    H18      H        0.25587    0.02713    0.81473    1.000
    N12      N        0.24117    0.21633    0.75123    1.000
    O5       O        0.30667    0.17353    0.97913    1.000
    N13      N        0.35637    0.38103    0.68513    1.000
    H19      H        0.39327    0.42723    0.66733    1.000
    H20      H        0.30327    0.36653    0.68493    1.000
    C19      C        0.32997    0.16443    0.92903    1.000
    C20      C        0.36037    0.21473    0.76973    1.000
    C21      C        0.27137    0.08493    0.89643    1.000
    H21      H        0.21467    0.07783    0.89693    1.000
    H22      H        0.26887    0.03713    0.91803    1.000
    C22      C        0.32697    0.25783    0.74203    1.000
    N14      N        0.44257    0.23783    0.76833    1.000
    Ag6      Ag       0.14064    0.23421    0.71852    1.000
    C23      C        0.43457    0.48683    0.83723    1.000
    H23      H        0.38887    0.44323    0.81323    1.000
    H24      H        0.43567    0.54013    0.82983    1.000
    O6       O        0.54347    0.45213    0.83973    1.000
    O7       O        0.55837    0.54843    0.77783    1.000
    C24      C        0.51767    0.49563    0.81663    1.000
    Ag7      Ag       0.48679    0.33606    0.93201    1.000
    Ag8      Ag       0.50207    0.17243    0.80672    1.000
    O8       O        0.39777    0.21213    0.90383    1.000
    C25      C        0.48917    0.30893    0.73933    1.000
    H25      H        0.54737    0.32833    0.73763    1.000
    C26      C        0.49797    0.60563    0.95103    1.000
    H26      H        0.46277    0.62503    0.93603    1.000
    C27      C        0.59687    0.60093    0.99513    1.000
    N15      N        0.56287    0.65173    0.98313    1.000
    N16      N        0.71827    0.68363    0.05493    1.000
    H27      H        0.76177    0.68793    0.07383    1.000
    H28      H        0.70777    0.72503    0.05573    1.000
    C28      C        0.66867    0.61513    0.02543    1.000
    C29      C        0.54967    0.52523    0.96783    1.000
    N17      N        0.56367    0.46023    0.96913    1.000
    N18      N        0.68667    0.55143    0.02513    1.000
    N19      N        0.48407    0.52823    0.94033    1.000
    C30      C        0.63487    0.47983    0.99873    1.000
    H29      H        0.64917    0.43723    0.00093    1.000
    C31      C        0.41577    0.46433    0.90323    1.000
    H30      H        0.36237    0.46113    0.91393    1.000
    H31      H        0.41017    0.40903    0.91053    1.000
    C32      C        0.22607    0.15323    0.78383    1.000
    H32      H        0.17187    0.11423    0.79793    1.000
    N20      N        0.46267    0.35623    0.71223    1.000
    Ag9      Ag       0.22620    0.81335    0.01238    1.000
    N21      N        0.96283    0.48127    0.12977    1.000
    C33      C        0.04743    0.66657    0.04557    1.000
    C34      C        0.96243    0.41537    0.16547    1.000
    H33      H        0.01863    0.42117    0.16447    1.000
    H34      H        0.92253    0.36047    0.14807    1.000
    N22      N        0.90783    0.54967    0.08457    1.000
    O9       O        0.97333    0.50687    0.31247    1.000
    N23      N        0.02303    0.71437    0.01847    1.000
    H35      H        0.05993    0.76057    0.00067    1.000
    H36      H        0.96993    0.69987    0.01827    1.000
    C35      C        0.99663    0.49777    0.26237    1.000
    C36      C        0.02703    0.54807    0.10307    1.000
    C37      C        0.93803    0.41827    0.22977    1.000
    H37      H        0.88133    0.41117    0.23027    1.000
    H38      H        0.93553    0.37047    0.25137    1.000
    C38      C        0.99363    0.59117    0.07537    1.000
    N24      N        0.10923    0.57117    0.10167    1.000
    Ag10     Ag       0.80730    0.56755    0.05186    1.000
    C39      C        0.10123    0.82017    0.17057    1.000
    H39      H        0.05553    0.77657    0.14657    1.000
    H40      H        0.10233    0.87347    0.16317    1.000
    O10      O        0.21013    0.78547    0.17307    1.000
    O11      O        0.22503    0.88177    0.11117    1.000
    C40      C        0.18433    0.82897    0.14997    1.000
    Ag11     Ag       0.15345    0.66940    0.26535    1.000
    Ag12     Ag       0.16873    0.50577    0.14006    1.000
    O12      O        0.06443    0.54547    0.23717    1.000
    C41      C        0.15583    0.64227    0.07267    1.000
    H41      H        0.21403    0.66167    0.07097    1.000
    C42      C        0.16463    0.93897    0.28437    1.000
    H42      H        0.12943    0.95837    0.26937    1.000
    C43      C        0.26353    0.93427    0.32847    1.000
    N25      N        0.22953    0.98507    0.31647    1.000
    N26      N        0.38493    0.01697    0.38827    1.000
    H43      H        0.42843    0.02127    0.40717    1.000
    H44      H        0.37443    0.05837    0.38907    1.000
    C44      C        0.33533    0.94847    0.35877    1.000
    C45      C        0.21633    0.85857    0.30117    1.000
    N27      N        0.23033    0.79357    0.30247    1.000
    N28      N        0.35333    0.88477    0.35847    1.000
    N29      N        0.15073    0.86157    0.27367    1.000
    C46      C        0.30153    0.81317    0.33207    1.000
    H45      H        0.31583    0.77057    0.33427    1.000
    C47      C        0.08243    0.79767    0.23657    1.000
    H46      H        0.02903    0.79447    0.24727    1.000
    H47      H        0.07683    0.74237    0.24387    1.000
    C48      C        0.89273    0.48657    0.11717    1.000
    H48      H        0.83853    0.44757    0.13127    1.000
    N30      N        0.12933    0.68957    0.04557    1.000
    Ag13     Ag       0.85332    0.74619    0.34571    1.000
    N31      N        0.18540    0.81490    0.46310    1.000
    C49      C        0.00010    0.71420    0.37890    1.000
    C50      C        0.25130    0.88040    0.49880    1.000
    H49      H        0.24550    0.93080    0.49780    1.000
    H50      H        0.30620    0.89540    0.48140    1.000
    N32      N        0.11700    0.69150    0.41790    1.000
    O13      O        0.15980    0.79980    0.64580    1.000
    N33      N        0.95230    0.64200    0.35180    1.000
    H51      H        0.90610    0.63270    0.33400    1.000
    H52      H        0.96680    0.60340    0.35160    1.000
    C51      C        0.16890    0.83220    0.59570    1.000
    C52      C        0.11860    0.81230    0.43640    1.000
    C53      C        0.24840    0.85310    0.56310    1.000
    H53      H        0.25550    0.80350    0.56360    1.000
    H54      H        0.29620    0.89840    0.58470    1.000
    C54      C        0.07550    0.73580    0.40870    1.000
    N34      N        0.09550    0.87140    0.43500    1.000
    Ag14     Ag       0.09912    0.57309    0.38519    1.000
    C55      C        0.84650    0.61440    0.50390    1.000
    H55      H        0.89010    0.61230    0.47990    1.000
    H56      H        0.79320    0.56220    0.49650    1.000
    O14      O        0.88120    0.75800    0.50640    1.000
    O15      O        0.78490    0.67660    0.44450    1.000
    C56      C        0.83770    0.68870    0.48330    1.000
    Ag15     Ag       0.99727    0.81739    0.59868    1.000
    Ag16     Ag       0.16090    0.99630    0.47339    1.000
    O16      O        0.12120    0.85230    0.57050    1.000
    C57      C        0.02440    0.84690    0.40600    1.000
    H57      H        0.00500    0.88570    0.40430    1.000
    C58      C        0.72770    0.55900    0.61770    1.000
    H58      H        0.70830    0.50440    0.60270    1.000
    C59      C        0.73240    0.66260    0.66180    1.000
    N35      N        0.68160    0.57780    0.64980    1.000
    N36      N        0.64970    0.70130    0.72160    1.000
    H59      H        0.64540    0.74050    0.74050    1.000
    H60      H        0.60830    0.64940    0.72240    1.000
    C60      C        0.71820    0.72020    0.69210    1.000
    C61      C        0.80810    0.69110    0.63450    1.000
    N37      N        0.87310    0.77010    0.63580    1.000
    N38      N        0.78190    0.80190    0.69180    1.000
    N39      N        0.80510    0.62250    0.60700    1.000
    C62      C        0.85350    0.82170    0.66540    1.000
    H61      H        0.89610    0.87860    0.66760    1.000
    C63      C        0.86900    0.61810    0.56990    1.000
    H62      H        0.87220    0.56790    0.58060    1.000
    H63      H        0.92430    0.66780    0.57720    1.000
    C64      C        0.18010    0.73950    0.45050    1.000
    H64      H        0.21910    0.72430    0.46460    1.000
    N40      N        0.97710    0.77310    0.37890    1.000
    Ag17     Ag       0.51999    0.07952    0.67904    1.000
    N41      N        0.85207    0.14823    0.79643    1.000
    C65      C        0.66677    0.04753    0.71223    1.000
    C66      C        0.91797    0.21373    0.83213    1.000
    H65      H        0.91217    0.26413    0.83113    1.000
    H66      H        0.97287    0.22873    0.81473    1.000
    N42      N        0.78367    0.02483    0.75123    1.000
    O17      O        0.82647    0.13313    0.97913    1.000
    N43      N        0.61897    0.97533    0.68513    1.000
    H67      H        0.57277    0.96603    0.66733    1.000
    H68      H        0.63347    0.93673    0.68493    1.000
    C67      C        0.83557    0.16553    0.92903    1.000
    C68      C        0.78527    0.14563    0.76973    1.000
    C69      C        0.91507    0.18643    0.89643    1.000
    H69      H        0.92217    0.13683    0.89693    1.000
    H70      H        0.96287    0.23173    0.91803    1.000
    C70      C        0.74217    0.06913    0.74203    1.000
    N44      N        0.76217    0.20473    0.76833    1.000
    Ag18     Ag       0.76579    0.90642    0.71852    1.000
    C71      C        0.51317    0.94773    0.83723    1.000
    H71      H        0.55677    0.94563    0.81323    1.000
    H72      H        0.45987    0.89553    0.82983    1.000
    O18      O        0.54787    0.09133    0.83973    1.000
    O19      O        0.45157    0.00993    0.77783    1.000
    C72      C        0.50437    0.02203    0.81663    1.000
    Ag19     Ag       0.66394    0.15072    0.93201    1.000
    Ag20     Ag       0.82757    0.32963    0.80672    1.000
    O20      O        0.78787    0.18563    0.90383    1.000
    C73      C        0.69107    0.18023    0.73933    1.000
    H73      H        0.67167    0.21903    0.73763    1.000
    C74      C        0.39437    0.89233    0.95103    1.000
    H74      H        0.37497    0.83773    0.93603    1.000
    C75      C        0.39907    0.99593    0.99513    1.000
    N45      N        0.34827    0.91113    0.98313    1.000
    N46      N        0.31637    0.03463    0.05493    1.000
    H75      H        0.31207    0.07383    0.07383    1.000
    H76      H        0.27497    0.98273    0.05573    1.000
    C76      C        0.38487    0.05353    0.02543    1.000
    C77      C        0.47477    0.02443    0.96783    1.000
    N47      N        0.53977    0.10343    0.96913    1.000
    N48      N        0.44857    0.13523    0.02513    1.000
    N49      N        0.47177    0.95583    0.94033    1.000
    C78      C        0.52017    0.15503    0.99873    1.000
    H77      H        0.56277    0.21193    0.00093    1.000
    C79      C        0.53567    0.95143    0.90323    1.000
    H78      H        0.53887    0.90123    0.91393    1.000
    H79      H        0.59097    0.00113    0.91053    1.000
    C80      C        0.84677    0.07283    0.78383    1.000
    H80      H        0.88577    0.05763    0.79793    1.000
    N50      N        0.64377    0.10643    0.71223    1.000
    Ag21     Ag       0.18665    0.41286    0.01238    1.000
    N51      N        0.51873    0.48157    0.12977    1.000
    C81      C        0.33343    0.38087    0.04557    1.000
    C82      C        0.58463    0.54707    0.16547    1.000
    H81      H        0.57883    0.59747    0.16447    1.000
    H82      H        0.63953    0.56207    0.14807    1.000
    N52      N        0.45033    0.35817    0.08457    1.000
    O21      O        0.49313    0.46647    0.31247    1.000
    N53      N        0.28563    0.30867    0.01847    1.000
    H83      H        0.23943    0.29937    0.00067    1.000
    H84      H        0.30013    0.27007    0.01827    1.000
    C83      C        0.50223    0.49887    0.26237    1.000
    C84      C        0.45193    0.47897    0.10307    1.000
    C85      C        0.58173    0.51977    0.22977    1.000
    H85      H        0.58883    0.47017    0.23027    1.000
    H86      H        0.62953    0.56507    0.25137    1.000
    C86      C        0.40883    0.40247    0.07537    1.000
    N54      N        0.42883    0.53807    0.10167    1.000
    Ag22     Ag       0.43245    0.23976    0.05186    1.000
    C87      C        0.17983    0.28107    0.17057    1.000
    H87      H        0.22343    0.27897    0.14657    1.000
    H88      H        0.12653    0.22887    0.16317    1.000
    O22      O        0.21453    0.42467    0.17307    1.000
    O23      O        0.11823    0.34327    0.11117    1.000
    C88      C        0.17103    0.35537    0.14997    1.000
    Ag23     Ag       0.33060    0.48406    0.26535    1.000
    Ag24     Ag       0.49423    0.66297    0.14006    1.000
    O24      O        0.45453    0.51897    0.23717    1.000
    C89      C        0.35773    0.51357    0.07267    1.000
    H89      H        0.33833    0.55237    0.07097    1.000
    C90      C        0.06103    0.22567    0.28437    1.000
    H90      H        0.04163    0.17107    0.26937    1.000
    C91      C        0.06573    0.32927    0.32847    1.000
    N55      N        0.01493    0.24447    0.31647    1.000
    N56      N        0.98303    0.36797    0.38827    1.000
    H91      H        0.97873    0.40717    0.40717    1.000
    H92      H        0.94163    0.31607    0.38907    1.000
    C92      C        0.05153    0.38687    0.35877    1.000
    C93      C        0.14143    0.35777    0.30117    1.000
    N57      N        0.20643    0.43677    0.30247    1.000
    N58      N        0.11523    0.46857    0.35847    1.000
    N59      N        0.13843    0.28917    0.27367    1.000
    C94      C        0.18683    0.48837    0.33207    1.000
    H93      H        0.22943    0.54527    0.33427    1.000
    C95      C        0.20233    0.28477    0.23657    1.000
    H94      H        0.20553    0.23457    0.24727    1.000
    H95      H        0.25763    0.33447    0.24387    1.000
    C96      C        0.51343    0.40617    0.11717    1.000
    H96      H        0.55243    0.39097    0.13127    1.000
    N60      N        0.31043    0.43977    0.04557    1.000
    Ag25     Ag       0.25381    0.10713    0.34571    1.000
    N61      N        0.18510    0.37050    0.46310    1.000
    C97      C        0.28580    0.28590    0.37890    1.000
    C98      C        0.11960    0.37090    0.49880    1.000
    H97      H        0.06920    0.31470    0.49780    1.000
    H98      H        0.10460    0.41080    0.48140    1.000
    N62      N        0.30850    0.42550    0.41790    1.000
    O25      O        0.20020    0.36000    0.64580    1.000
    N63      N        0.35800    0.31030    0.35180    1.000
    H99      H        0.36730    0.27340    0.33400    1.000
    H100     H        0.39660    0.36340    0.35160    1.000
    C99      C        0.16780    0.33670    0.59570    1.000
    C100     C        0.18770    0.30630    0.43640    1.000
    C101     C        0.14690    0.39530    0.56310    1.000
    H101     H        0.19650    0.45200    0.56360    1.000
    H102     H        0.10160    0.39780    0.58470    1.000
    C102     C        0.26420    0.33970    0.40870    1.000
    N64      N        0.12860    0.22410    0.43500    1.000
    Ag26     Ag       0.42691    0.52603    0.38519    1.000
    C103     C        0.38560    0.23210    0.50390    1.000
    H103     H        0.38770    0.27780    0.47990    1.000
    H104     H        0.43780    0.23100    0.49650    1.000
    O26      O        0.24200    0.12320    0.50640    1.000
    O27      O        0.32340    0.10830    0.44450    1.000
    C104     C        0.31130    0.14900    0.48330    1.000
    Ag27     Ag       0.18261    0.17988    0.59868    1.000
    Ag28     Ag       0.00370    0.16460    0.47339    1.000
    O28      O        0.14770    0.26890    0.57050    1.000
    C105     C        0.15310    0.17750    0.40600    1.000
    H105     H        0.11430    0.11930    0.40430    1.000
    C106     C        0.44100    0.16870    0.61770    1.000
    H106     H        0.49560    0.20390    0.60270    1.000
    C107     C        0.33740    0.06980    0.66180    1.000
    N65      N        0.42220    0.10380    0.64980    1.000
    N66      N        0.29870    0.94840    0.72160    1.000
    H107     H        0.25950    0.90490    0.74050    1.000
    H108     H        0.35060    0.95890    0.72240    1.000
    C108     C        0.27980    0.99800    0.69210    1.000
    C109     C        0.30890    0.11700    0.63450    1.000
    N67      N        0.22990    0.10300    0.63580    1.000
    N68      N        0.19810    0.98000    0.69180    1.000
    N69      N        0.37750    0.18260    0.60700    1.000
    C110     C        0.17830    0.03180    0.66540    1.000
    H109     H        0.12140    0.01750    0.66760    1.000
    C111     C        0.38190    0.25090    0.56990    1.000
    H110     H        0.43210    0.30430    0.58060    1.000
    H111     H        0.33220    0.25650    0.57720    1.000
    C112     C        0.26050    0.44060    0.45050    1.000
    H112     H        0.27570    0.49480    0.46460    1.000
    N70      N        0.22690    0.20400    0.37890    1.000
    Ag29     Ag       0.92048    0.44046    0.67904    1.000
    N71      N        0.85177    0.70383    0.79643    1.000
    C113     C        0.95247    0.61923    0.71223    1.000
    C114     C        0.78627    0.70423    0.83213    1.000
    H113     H        0.73587    0.64803    0.83113    1.000
    H114     H        0.77127    0.74413    0.81473    1.000
    N72      N        0.97517    0.75883    0.75123    1.000
    O29      O        0.86687    0.69333    0.97913    1.000
    N73      N        0.02467    0.64363    0.68513    1.000
    H115     H        0.03397    0.60673    0.66733    1.000
    H116     H        0.06327    0.69673    0.68493    1.000
    C115     C        0.83447    0.67003    0.92903    1.000
    C116     C        0.85437    0.63963    0.76973    1.000
    C117     C        0.81357    0.72863    0.89643    1.000
    H117     H        0.86317    0.78533    0.89693    1.000
    H118     H        0.76827    0.73113    0.91803    1.000
    C118     C        0.93087    0.67303    0.74203    1.000
    N74      N        0.79527    0.55743    0.76833    1.000
    Ag30     Ag       0.09358    0.85936    0.71852    1.000
    C119     C        0.05227    0.56543    0.83723    1.000
    H119     H        0.05437    0.61113    0.81323    1.000
    H120     H        0.10447    0.56433    0.82983    1.000
    O30      O        0.90867    0.45653    0.83973    1.000
    O31      O        0.99007    0.44163    0.77783    1.000
    C120     C        0.97797    0.48233    0.81663    1.000
    Ag31     Ag       0.84928    0.51321    0.93201    1.000
    Ag32     Ag       0.67037    0.49793    0.80672    1.000
    O32      O        0.81437    0.60223    0.90383    1.000
    C121     C        0.81977    0.51083    0.73933    1.000
    H121     H        0.78097    0.45263    0.73763    1.000
    C122     C        0.10767    0.50203    0.95103    1.000
    H122     H        0.16227    0.53723    0.93603    1.000
    C123     C        0.00407    0.40313    0.99513    1.000
    N75      N        0.08887    0.43713    0.98313    1.000
    N76      N        0.96537    0.28173    0.05493    1.000
    H123     H        0.92617    0.23823    0.07383    1.000
    H124     H        0.01727    0.29223    0.05573    1.000
    C124     C        0.94647    0.33133    0.02543    1.000
    C125     C        0.97557    0.45033    0.96783    1.000
    N77      N        0.89657    0.43633    0.96913    1.000
    N78      N        0.86477    0.31333    0.02513    1.000
    N79      N        0.04417    0.51593    0.94033    1.000
    C126     C        0.84497    0.36513    0.99873    1.000
    H125     H        0.78807    0.35083    0.00093    1.000
    C127     C        0.04857    0.58423    0.90323    1.000
    H126     H        0.09877    0.63763    0.91393    1.000
    H127     H        0.99887    0.58983    0.91053    1.000
    C128     C        0.92717    0.77393    0.78383    1.000
    H128     H        0.94237    0.82813    0.79793    1.000
    N80      N        0.89357    0.53733    0.71223    1.000
    Ag33     Ag       0.58714    0.77380    0.01238    1.000
    N81      N        0.51843    0.03717    0.12977    1.000
    C129     C        0.61913    0.95257    0.04557    1.000
    C130     C        0.45293    0.03757    0.16547    1.000
    H129     H        0.40253    0.98137    0.16447    1.000
    H130     H        0.43793    0.07747    0.14807    1.000
    N82      N        0.64183    0.09217    0.08457    1.000
    O33      O        0.53353    0.02667    0.31247    1.000
    N83      N        0.69133    0.97697    0.01847    1.000
    H131     H        0.70063    0.94007    0.00067    1.000
    H132     H        0.72993    0.03007    0.01827    1.000
    C131     C        0.50113    0.00337    0.26237    1.000
    C132     C        0.52103    0.97297    0.10307    1.000
    C133     C        0.48023    0.06197    0.22977    1.000
    H133     H        0.52983    0.11867    0.23027    1.000
    H134     H        0.43493    0.06447    0.25137    1.000
    C134     C        0.59753    0.00637    0.07537    1.000
    N84      N        0.46193    0.89077    0.10167    1.000
    Ag34     Ag       0.76024    0.19270    0.05186    1.000
    C135     C        0.71893    0.89877    0.17057    1.000
    H135     H        0.72103    0.94447    0.14657    1.000
    H136     H        0.77113    0.89767    0.16317    1.000
    O34      O        0.57533    0.78987    0.17307    1.000
    O35      O        0.65673    0.77497    0.11117    1.000
    C136     C        0.64463    0.81567    0.14997    1.000
    Ag35     Ag       0.51594    0.84655    0.26535    1.000
    Ag36     Ag       0.33703    0.83127    0.14006    1.000
    O36      O        0.48103    0.93557    0.23717    1.000
    C137     C        0.48643    0.84417    0.07267    1.000
    H137     H        0.44763    0.78597    0.07097    1.000
    C138     C        0.77433    0.83537    0.28437    1.000
    H138     H        0.82893    0.87057    0.26937    1.000
    C139     C        0.67073    0.73647    0.32847    1.000
    N85      N        0.75553    0.77047    0.31647    1.000
    N86      N        0.63203    0.61507    0.38827    1.000
    H139     H        0.59283    0.57157    0.40717    1.000
    H140     H        0.68393    0.62557    0.38907    1.000
    C140     C        0.61313    0.66467    0.35877    1.000
    C141     C        0.64223    0.78367    0.30117    1.000
    N87      N        0.56323    0.76967    0.30247    1.000
    N88      N        0.53143    0.64667    0.35847    1.000
    N89      N        0.71083    0.84927    0.27367    1.000
    C142     C        0.51163    0.69847    0.33207    1.000
    H141     H        0.45473    0.68417    0.33427    1.000
    C143     C        0.71523    0.91757    0.23657    1.000
    H142     H        0.76543    0.97097    0.24727    1.000
    H143     H        0.66553    0.92317    0.24387    1.000
    C144     C        0.59383    0.10727    0.11717    1.000
    H144     H        0.60903    0.16147    0.13127    1.000
    N90      N        0.56023    0.87067    0.04557    1.000
