# CIF file generated by openbabel 3.1.0, see https://openbabel.org
data_I
_chemical_name_common 'image0'
_cell_length_a 16.632
_cell_length_b 17.391
_cell_length_c 15.685
_cell_angle_alpha 90
_cell_angle_beta 90
_cell_angle_gamma 90
_space_group_name_H-M_alt 'P 1'
_space_group_name_Hall 'P 1'
loop_
    _symmetry_equiv_pos_as_xyz
    x,y,z
loop_
    _atom_site_label
    _atom_site_type_symbol
    _atom_site_fract_x
    _atom_site_fract_y
    _atom_site_fract_z
    _atom_site_occupancy
    Cd1      Cd       0.11980    0.35440    0.56220    1.000
    Cd2      Cd       0.29210    0.12290    0.39990    1.000
    C1       C        0.16200    0.46500    0.50300    1.000
    C2       C        0.42200    0.16700    0.43700    1.000
    C3       C        0.16200    0.35000    0.69600    1.000
    C4       C        0.23000    0.21600    0.47000    1.000
    C5       C        0.18800    0.25900    0.50500    1.000
    C6       C        0.48700    0.16500    0.44000    1.000
    C7       C        0.31900    0.14100    0.26600    1.000
    C8       C        0.31800    0.02100    0.47500    1.000
    N1       N        0.16900    0.06800    0.35800    1.000
    C9       C        0.11200    0.05400    0.31900    1.000
    Cd3      Cd       0.38020    0.14560    0.06220    1.000
    Cd4      Cd       0.20790    0.37710    0.89990    1.000
    C10      C        0.33800    0.03500    0.00300    1.000
    C11      C        0.07800    0.33300    0.93700    1.000
    C12      C        0.33800    0.15000    0.19600    1.000
    C13      C        0.27000    0.28400    0.97000    1.000
    C14      C        0.31200    0.24100    0.00500    1.000
    C15      C        0.01300    0.33500    0.94000    1.000
    C16      C        0.18100    0.35900    0.76600    1.000
    C17      C        0.18200    0.47900    0.97500    1.000
    N2       N        0.33100    0.43200    0.85800    1.000
    C18      C        0.38800    0.44600    0.81900    1.000
    Cd5      Cd       0.88020    0.35440    0.93780    1.000
    Cd6      Cd       0.70790    0.12290    0.10010    1.000
    C19      C        0.83800    0.46500    0.99700    1.000
    C20      C        0.57800    0.16700    0.06300    1.000
    C21      C        0.83800    0.35000    0.80400    1.000
    C22      C        0.77000    0.21600    0.03000    1.000
    C23      C        0.81200    0.25900    0.99500    1.000
    C24      C        0.51300    0.16500    0.06000    1.000
    C25      C        0.68100    0.14100    0.23400    1.000
    C26      C        0.68200    0.02100    0.02500    1.000
    N3       N        0.83100    0.06800    0.14200    1.000
    C27      C        0.88800    0.05400    0.18100    1.000
    Cd7      Cd       0.61980    0.14560    0.43780    1.000
    Cd8      Cd       0.79210    0.37710    0.60010    1.000
    C28      C        0.66200    0.03500    0.49700    1.000
    C29      C        0.92200    0.33300    0.56300    1.000
    C30      C        0.66200    0.15000    0.30400    1.000
    C31      C        0.73000    0.28400    0.53000    1.000
    C32      C        0.68800    0.24100    0.49500    1.000
    C33      C        0.98700    0.33500    0.56000    1.000
    C34      C        0.81900    0.35900    0.73400    1.000
    C35      C        0.81800    0.47900    0.52500    1.000
    N4       N        0.66900    0.43200    0.64200    1.000
    C36      C        0.61200    0.44600    0.68100    1.000
    Cd9      Cd       0.88020    0.64560    0.43780    1.000
    Cd10     Cd       0.70790    0.87710    0.60010    1.000
    C37      C        0.83800    0.53500    0.49700    1.000
    C38      C        0.57800    0.83300    0.56300    1.000
    C39      C        0.83800    0.65000    0.30400    1.000
    C40      C        0.77000    0.78400    0.53000    1.000
    C41      C        0.81200    0.74100    0.49500    1.000
    C42      C        0.51300    0.83500    0.56000    1.000
    C43      C        0.68100    0.85900    0.73400    1.000
    C44      C        0.68200    0.97900    0.52500    1.000
    N5       N        0.83100    0.93200    0.64200    1.000
    C45      C        0.88800    0.94600    0.68100    1.000
    Cd11     Cd       0.61980    0.85440    0.93780    1.000
    Cd12     Cd       0.79210    0.62290    0.10010    1.000
    C46      C        0.66200    0.96500    0.99700    1.000
    C47      C        0.92200    0.66700    0.06300    1.000
    C48      C        0.66200    0.85000    0.80400    1.000
    C49      C        0.73000    0.71600    0.03000    1.000
    C50      C        0.68800    0.75900    0.99500    1.000
    C51      C        0.98700    0.66500    0.06000    1.000
    C52      C        0.81900    0.64100    0.23400    1.000
    C53      C        0.81800    0.52100    0.02500    1.000
    N6       N        0.66900    0.56800    0.14200    1.000
    C54      C        0.61200    0.55400    0.18100    1.000
    Cd13     Cd       0.11980    0.64560    0.06220    1.000
    Cd14     Cd       0.29210    0.87710    0.89990    1.000
    C55      C        0.16200    0.53500    0.00300    1.000
    C56      C        0.42200    0.83300    0.93700    1.000
    C57      C        0.16200    0.65000    0.19600    1.000
    C58      C        0.23000    0.78400    0.97000    1.000
    C59      C        0.18800    0.74100    0.00500    1.000
    C60      C        0.48700    0.83500    0.94000    1.000
    C61      C        0.31900    0.85900    0.76600    1.000
    C62      C        0.31800    0.97900    0.97500    1.000
    N7       N        0.16900    0.93200    0.85800    1.000
    C63      C        0.11200    0.94600    0.81900    1.000
    Cd15     Cd       0.38020    0.85440    0.56220    1.000
    Cd16     Cd       0.20790    0.62290    0.39990    1.000
    C64      C        0.33800    0.96500    0.50300    1.000
    C65      C        0.07800    0.66700    0.43700    1.000
    C66      C        0.33800    0.85000    0.69600    1.000
    C67      C        0.27000    0.71600    0.47000    1.000
    C68      C        0.31200    0.75900    0.50500    1.000
    C69      C        0.01300    0.66500    0.44000    1.000
    C70      C        0.18100    0.64100    0.26600    1.000
    C71      C        0.18200    0.52100    0.47500    1.000
    N8       N        0.33100    0.56800    0.35800    1.000
    C72      C        0.38800    0.55400    0.31900    1.000
    Cd17     Cd       0.00000    0.04750    0.25000    1.000
    Cd18     Cd       0.50000    0.45250    0.75000    1.000
    Cd19     Cd       0.00000    0.95250    0.75000    1.000
    Cd20     Cd       0.50000    0.54750    0.25000    1.000
