# CIF file generated by openbabel 3.1.0, see https://openbabel.org
data_I
_chemical_name_common 'image0'
_cell_length_a 8.9147
_cell_length_b 9.7297
_cell_length_c 9.5179
_cell_angle_alpha 90
_cell_angle_beta 115.745
_cell_angle_gamma 90
_space_group_name_H-M_alt 'P 1'
_space_group_name_Hall 'P 1'
loop_
    _symmetry_equiv_pos_as_xyz
    x,y,z
loop_
    _atom_site_label
    _atom_site_type_symbol
    _atom_site_fract_x
    _atom_site_fract_y
    _atom_site_fract_z
    _atom_site_occupancy
    Zn1      Zn       0.82463    0.05862    0.06330    1.000
    O1       O        0.67450    0.97140    0.17310    1.000
    O2       O        0.40940    0.92270    0.10860    1.000
    N1       N        0.89830    0.21200    0.22330    1.000
    N2       N        0.02740    0.39200    0.36430    1.000
    N3       N        0.90690    0.35310    0.40840    1.000
    C1       C        0.52410    0.96870    0.08160    1.000
    C2       C        0.01770    0.30560    0.25390    1.000
    H1       H        0.08620    0.30950    0.20310    1.000
    C3       C        0.83470    0.24490    0.32370    1.000
    H2       H        0.74920    0.19640    0.33220    1.000
    Zn2      Zn       0.17537    0.55862    0.43670    1.000
    O3       O        0.32550    0.47140    0.32690    1.000
    O4       O        0.59060    0.42270    0.39140    1.000
    N4       N        0.10170    0.71200    0.27670    1.000
    N5       N        0.97260    0.89200    0.13570    1.000
    N6       N        0.09310    0.85310    0.09160    1.000
    C4       C        0.47590    0.46870    0.41840    1.000
    C5       C        0.98230    0.80560    0.24610    1.000
    H3       H        0.91380    0.80950    0.29690    1.000
    C6       C        0.16530    0.74490    0.17630    1.000
    H4       H        0.25080    0.69640    0.16780    1.000
    Zn3      Zn       0.17537    0.94138    0.93670    1.000
    O5       O        0.32550    0.02860    0.82690    1.000
    O6       O        0.59060    0.07730    0.89140    1.000
    N7       N        0.10170    0.78800    0.77670    1.000
    N8       N        0.97260    0.60800    0.63570    1.000
    N9       N        0.09310    0.64690    0.59160    1.000
    C7       C        0.47590    0.03130    0.91840    1.000
    C8       C        0.98230    0.69440    0.74610    1.000
    H5       H        0.91380    0.69050    0.79690    1.000
    C9       C        0.16530    0.75510    0.67630    1.000
    H6       H        0.25080    0.80360    0.66780    1.000
    Zn4      Zn       0.82463    0.44138    0.56330    1.000
    O7       O        0.67450    0.52860    0.67310    1.000
    O8       O        0.40940    0.57730    0.60860    1.000
    N10      N        0.89830    0.28800    0.72330    1.000
    N11      N        0.02740    0.10800    0.86430    1.000
    N12      N        0.90690    0.14690    0.90840    1.000
    C10      C        0.52410    0.53130    0.58160    1.000
    C11      C        0.01770    0.19440    0.75390    1.000
    H7       H        0.08620    0.19050    0.70310    1.000
    C12      C        0.83470    0.25510    0.82370    1.000
    H8       H        0.74920    0.30360    0.83220    1.000
