# CIF file generated by openbabel 3.1.0, see https://openbabel.org
data_I
_chemical_name_common 'image0'
_cell_length_a 23.0051
_cell_length_b 23.0051
_cell_length_c 15.7608
_cell_angle_alpha 90
_cell_angle_beta 90
_cell_angle_gamma 120
_space_group_name_H-M_alt 'P 1'
_space_group_name_Hall 'P 1'
loop_
    _symmetry_equiv_pos_as_xyz
    x,y,z
loop_
    _atom_site_label
    _atom_site_type_symbol
    _atom_site_fract_x
    _atom_site_fract_y
    _atom_site_fract_z
    _atom_site_occupancy
    N1       N        0.96844    0.31790    0.42521    1.000
    C1       C        0.99094    0.35809    0.49264    1.000
    H1       H        0.98461    0.39474    0.49887    1.000
    N2       N        0.02340    0.34252    0.55122    1.000
    C2       C        0.98962    0.27128    0.43890    1.000
    C3       C        0.98063    0.21726    0.39130    1.000
    H2       H        0.95835    0.20704    0.33954    1.000
    C4       C        0.00628    0.17939    0.42342    1.000
    H3       H        0.00146    0.14286    0.39244    1.000
    C5       C        0.03978    0.19419    0.50285    1.000
    H4       H        0.05663    0.16737    0.52254    1.000
    C6       C        0.02290    0.28607    0.51774    1.000
    C7       C        0.04783    0.24717    0.55086    1.000
    H5       H        0.06904    0.25663    0.60345    1.000
    N3       N        0.92601    0.41563    0.35376    1.000
    C8       C        0.94710    0.47651    0.32463    1.000
    H6       H        0.97576    0.49313    0.27827    1.000
    N4       N        0.92576    0.51288    0.36392    1.000
    C9       C        0.88498    0.47106    0.42680    1.000
    C10      C        0.84796    0.48132    0.49211    1.000
    H7       H        0.84896    0.52200    0.49709    1.000
    C11      C        0.88449    0.41149    0.42193    1.000
    C12      C        0.84632    0.35688    0.47996    1.000
    H8       H        0.84639    0.31656    0.47632    1.000
    C13      C        0.81122    0.43028    0.54673    1.000
    H9       H        0.78646    0.43658    0.58865    1.000
    C14      C        0.80948    0.36780    0.54198    1.000
    H10      H        0.78360    0.33391    0.58033    1.000
    Zn1      Zn       0.93425    0.32844    0.32063    1.000
    N5       N        0.63511    0.65123    0.75854    1.000
    C15      C        0.65761    0.69142    0.82597    1.000
    H11      H        0.65128    0.72807    0.83220    1.000
    N6       N        0.69007    0.67585    0.88455    1.000
    C16      C        0.65629    0.60461    0.77223    1.000
    C17      C        0.64730    0.55059    0.72463    1.000
    H12      H        0.62502    0.54037    0.67287    1.000
    C18      C        0.67295    0.51272    0.75675    1.000
    H13      H        0.66813    0.47619    0.72577    1.000
    C19      C        0.70645    0.52752    0.83618    1.000
    H14      H        0.72330    0.50070    0.85587    1.000
    C20      C        0.68957    0.61940    0.85107    1.000
    C21      C        0.71450    0.58050    0.88419    1.000
    H15      H        0.73571    0.58996    0.93678    1.000
    N7       N        0.59268    0.74896    0.68709    1.000
    C22      C        0.61377    0.80984    0.65796    1.000
    H16      H        0.64243    0.82646    0.61160    1.000
    N8       N        0.59243    0.84621    0.69725    1.000
    C23      C        0.55165    0.80439    0.76013    1.000
    C24      C        0.51463    0.81465    0.82544    1.000
    H17      H        0.51563    0.85533    0.83042    1.000
    C25      C        0.55116    0.74482    0.75526    1.000
    C26      C        0.51299    0.69021    0.81329    1.000
    H18      H        0.51306    0.64989    0.80965    1.000
    C27      C        0.47789    0.76361    0.88006    1.000
    H19      H        0.45313    0.76991    0.92198    1.000
    C28      C        0.47615    0.70113    0.87531    1.000
    H20      H        0.45027    0.66724    0.91366    1.000
    Zn2      Zn       0.60092    0.66177    0.65396    1.000
    N9       N        0.30177    0.98457    0.09188    1.000
    C29      C        0.32427    0.02476    0.15931    1.000
    H21      H        0.31794    0.06141    0.16554    1.000
    N10      N        0.35673    0.00919    0.21789    1.000
    C30      C        0.32295    0.93795    0.10557    1.000
    C31      C        0.31396    0.88393    0.05797    1.000
    H22      H        0.29168    0.87371    0.00621    1.000
    C32      C        0.33961    0.84606    0.09009    1.000
    H23      H        0.33479    0.80953    0.05911    1.000
    C33      C        0.37311    0.86086    0.16952    1.000
    H24      H        0.38996    0.83404    0.18921    1.000
    C34      C        0.35623    0.95274    0.18441    1.000
    C35      C        0.38116    0.91384    0.21753    1.000
    H25      H        0.40237    0.92330    0.27012    1.000
    N11      N        0.25934    0.08230    0.02043    1.000
    C36      C        0.28043    0.14318    0.99130    1.000
    H26      H        0.30909    0.15980    0.94494    1.000
    N12      N        0.25909    0.17955    0.03059    1.000
    C37      C        0.21831    0.13773    0.09347    1.000
    C38      C        0.18129    0.14799    0.15878    1.000
    H27      H        0.18229    0.18867    0.16376    1.000
    C39      C        0.21782    0.07816    0.08860    1.000
    C40      C        0.17965    0.02355    0.14663    1.000
    H28      H        0.17972    0.98323    0.14299    1.000
    C41      C        0.14455    0.09695    0.21340    1.000
    H29      H        0.11979    0.10325    0.25532    1.000
    C42      C        0.14281    0.03447    0.20865    1.000
    H30      H        0.11693    0.00058    0.24700    1.000
    Zn3      Zn       0.26758    0.99511    0.98730    1.000
    N13      N        0.68210    0.65054    0.42521    1.000
    C43      C        0.64191    0.63285    0.49264    1.000
    H31      H        0.60526    0.58987    0.49887    1.000
    N14      N        0.65748    0.68088    0.55122    1.000
    C44      C        0.72872    0.71834    0.43890    1.000
    C45      C        0.78274    0.76337    0.39130    1.000
    H32      H        0.79296    0.75131    0.33954    1.000
    C46      C        0.82061    0.82689    0.42342    1.000
    H33      H        0.85714    0.85860    0.39244    1.000
    C47      C        0.80581    0.84559    0.50285    1.000
    H34      H        0.83263    0.88926    0.52254    1.000
    C48      C        0.71393    0.73683    0.51774    1.000
    C49      C        0.75283    0.80066    0.55086    1.000
    H35      H        0.74337    0.81241    0.60345    1.000
    N15      N        0.58437    0.51038    0.35376    1.000
    C50      C        0.52349    0.47059    0.32463    1.000
    H36      H        0.50687    0.48263    0.27827    1.000
    N16      N        0.48712    0.41288    0.36392    1.000
    C51      C        0.52894    0.41392    0.42680    1.000
    C52      C        0.51868    0.36664    0.49211    1.000
    H37      H        0.47800    0.32696    0.49709    1.000
    C53      C        0.58851    0.47300    0.42193    1.000
    C54      C        0.64312    0.48944    0.47996    1.000
    H38      H        0.68344    0.52983    0.47632    1.000
    C55      C        0.56972    0.38094    0.54673    1.000
    H39      H        0.56342    0.34988    0.58865    1.000
    C56      C        0.63220    0.44168    0.54198    1.000
    H40      H        0.66609    0.44969    0.58033    1.000
    Zn4      Zn       0.67156    0.60581    0.32063    1.000
    N17      N        0.34877    0.98387    0.75854    1.000
    C57      C        0.30858    0.96618    0.82597    1.000
    H41      H        0.27193    0.92320    0.83220    1.000
    N18      N        0.32415    0.01421    0.88455    1.000
    C58      C        0.39539    0.05167    0.77223    1.000
    C59      C        0.44941    0.09670    0.72463    1.000
    H42      H        0.45963    0.08464    0.67287    1.000
    C60      C        0.48728    0.16022    0.75675    1.000
    H43      H        0.52381    0.19193    0.72577    1.000
    C61      C        0.47248    0.17892    0.83618    1.000
    H44      H        0.49930    0.22259    0.85587    1.000
    C62      C        0.38060    0.07016    0.85107    1.000
    C63      C        0.41950    0.13399    0.88419    1.000
    H45      H        0.41004    0.14574    0.93678    1.000
    N19      N        0.25104    0.84371    0.68709    1.000
    C64      C        0.19016    0.80392    0.65796    1.000
    H46      H        0.17354    0.81596    0.61160    1.000
    N20      N        0.15379    0.74621    0.69725    1.000
    C65      C        0.19561    0.74725    0.76013    1.000
    C66      C        0.18535    0.69997    0.82544    1.000
    H47      H        0.14467    0.66029    0.83042    1.000
    C67      C        0.25518    0.80633    0.75526    1.000
    C68      C        0.30979    0.82277    0.81329    1.000
    H48      H        0.35011    0.86316    0.80965    1.000
    C69      C        0.23639    0.71427    0.88006    1.000
    H49      H        0.23009    0.68321    0.92198    1.000
    C70      C        0.29887    0.77501    0.87531    1.000
    H50      H        0.33276    0.78302    0.91366    1.000
    Zn5      Zn       0.33823    0.93914    0.65396    1.000
    N21      N        0.01543    0.31721    0.09188    1.000
    C71      C        0.97524    0.29952    0.15931    1.000
    H51      H        0.93859    0.25654    0.16554    1.000
    N22      N        0.99081    0.34755    0.21789    1.000
    C72      C        0.06205    0.38501    0.10557    1.000
    C73      C        0.11607    0.43004    0.05797    1.000
    H52      H        0.12629    0.41798    0.00621    1.000
    C74      C        0.15394    0.49356    0.09009    1.000
    H53      H        0.19047    0.52527    0.05911    1.000
    C75      C        0.13914    0.51226    0.16952    1.000
    H54      H        0.16596    0.55593    0.18921    1.000
    C76      C        0.04726    0.40350    0.18441    1.000
    C77      C        0.08616    0.46733    0.21753    1.000
    H55      H        0.07670    0.47908    0.27012    1.000
    N23      N        0.91770    0.17705    0.02043    1.000
    C78      C        0.85682    0.13726    0.99130    1.000
    H56      H        0.84020    0.14930    0.94494    1.000
    N24      N        0.82045    0.07955    0.03059    1.000
    C79      C        0.86227    0.08059    0.09347    1.000
    C80      C        0.85201    0.03331    0.15878    1.000
    H57      H        0.81133    0.99363    0.16376    1.000
    C81      C        0.92184    0.13967    0.08860    1.000
    C82      C        0.97645    0.15611    0.14663    1.000
    H58      H        0.01677    0.19650    0.14299    1.000
    C83      C        0.90305    0.04761    0.21340    1.000
    H59      H        0.89675    0.01655    0.25532    1.000
    C84      C        0.96553    0.10835    0.20865    1.000
    H60      H        0.99942    0.11636    0.24700    1.000
    Zn6      Zn       0.00489    0.27248    0.98730    1.000
    N25      N        0.34946    0.03156    0.42521    1.000
    C85      C        0.36715    0.00906    0.49264    1.000
    H61      H        0.41013    0.01539    0.49887    1.000
    N26      N        0.31912    0.97660    0.55122    1.000
    C86      C        0.28166    0.01038    0.43890    1.000
    C87      C        0.23663    0.01937    0.39130    1.000
    H62      H        0.24869    0.04165    0.33954    1.000
    C88      C        0.17311    0.99372    0.42342    1.000
    H63      H        0.14140    0.99854    0.39244    1.000
    C89      C        0.15441    0.96022    0.50285    1.000
    H64      H        0.11074    0.94337    0.52254    1.000
    C90      C        0.26317    0.97710    0.51774    1.000
    C91      C        0.19934    0.95217    0.55086    1.000
    H65      H        0.18759    0.93096    0.60345    1.000
    N27      N        0.48962    0.07399    0.35376    1.000
    C92      C        0.52941    0.05290    0.32463    1.000
    H66      H        0.51737    0.02424    0.27827    1.000
    N28      N        0.58712    0.07424    0.36392    1.000
    C93      C        0.58608    0.11502    0.42680    1.000
    C94      C        0.63336    0.15204    0.49211    1.000
    H67      H        0.67304    0.15104    0.49709    1.000
    C95      C        0.52700    0.11551    0.42193    1.000
    C96      C        0.51056    0.15368    0.47996    1.000
    H68      H        0.47017    0.15361    0.47632    1.000
    C97      C        0.61906    0.18878    0.54673    1.000
    H69      H        0.65012    0.21354    0.58865    1.000
    C98      C        0.55832    0.19052    0.54198    1.000
    H70      H        0.55031    0.21640    0.58033    1.000
    Zn7      Zn       0.39419    0.06575    0.32063    1.000
    N29      N        0.01613    0.36489    0.75854    1.000
    C99      C        0.03382    0.34239    0.82597    1.000
    H71      H        0.07680    0.34872    0.83220    1.000
    N30      N        0.98579    0.30993    0.88455    1.000
    C100     C        0.94833    0.34371    0.77223    1.000
    C101     C        0.90330    0.35270    0.72463    1.000
    H72      H        0.91536    0.37498    0.67287    1.000
    C102     C        0.83978    0.32705    0.75675    1.000
    H73      H        0.80807    0.33187    0.72577    1.000
    C103     C        0.82108    0.29355    0.83618    1.000
    H74      H        0.77741    0.27670    0.85587    1.000
    C104     C        0.92984    0.31043    0.85107    1.000
    C105     C        0.86601    0.28550    0.88419    1.000
    H75      H        0.85426    0.26429    0.93678    1.000
    N31      N        0.15629    0.40732    0.68709    1.000
    C106     C        0.19608    0.38623    0.65796    1.000
    H76      H        0.18404    0.35757    0.61160    1.000
    N32      N        0.25379    0.40757    0.69725    1.000
    C107     C        0.25275    0.44835    0.76013    1.000
    C108     C        0.30003    0.48537    0.82544    1.000
    H77      H        0.33971    0.48437    0.83042    1.000
    C109     C        0.19367    0.44884    0.75526    1.000
    C110     C        0.17723    0.48701    0.81329    1.000
    H78      H        0.13684    0.48694    0.80965    1.000
    C111     C        0.28573    0.52211    0.88006    1.000
    H79      H        0.31679    0.54687    0.92198    1.000
    C112     C        0.22499    0.52385    0.87531    1.000
    H80      H        0.21698    0.54973    0.91366    1.000
    Zn8      Zn       0.06086    0.39908    0.65396    1.000
    N33      N        0.68279    0.69823    0.09188    1.000
    C113     C        0.70048    0.67573    0.15931    1.000
    H81      H        0.74346    0.68206    0.16554    1.000
    N34      N        0.65245    0.64327    0.21789    1.000
    C114     C        0.61499    0.67705    0.10557    1.000
    C115     C        0.56996    0.68604    0.05797    1.000
    H82      H        0.58202    0.70832    0.00621    1.000
    C116     C        0.50644    0.66039    0.09009    1.000
    H83      H        0.47473    0.66521    0.05911    1.000
    C117     C        0.48774    0.62689    0.16952    1.000
    H84      H        0.44407    0.61004    0.18921    1.000
    C118     C        0.59650    0.64377    0.18441    1.000
    C119     C        0.53267    0.61884    0.21753    1.000
    H85      H        0.52092    0.59763    0.27012    1.000
    N35      N        0.82295    0.74066    0.02043    1.000
    C120     C        0.86274    0.71957    0.99130    1.000
    H86      H        0.85070    0.69091    0.94494    1.000
    N36      N        0.92045    0.74091    0.03059    1.000
    C121     C        0.91941    0.78169    0.09347    1.000
    C122     C        0.96669    0.81871    0.15878    1.000
    H87      H        0.00637    0.81771    0.16376    1.000
    C123     C        0.86033    0.78218    0.08860    1.000
    C124     C        0.84389    0.82035    0.14663    1.000
    H88      H        0.80350    0.82028    0.14299    1.000
    C125     C        0.95239    0.85545    0.21340    1.000
    H89      H        0.98345    0.88021    0.25532    1.000
    C126     C        0.89165    0.85719    0.20865    1.000
    H90      H        0.88364    0.88307    0.24700    1.000
    Zn9      Zn       0.72752    0.73242    0.98730    1.000
    N37      N        0.03156    0.68210    0.57479    1.000
    C127     C        0.00906    0.64191    0.50736    1.000
    H91      H        0.01539    0.60526    0.50113    1.000
    N38      N        0.97660    0.65748    0.44878    1.000
    C128     C        0.01038    0.72872    0.56110    1.000
    C129     C        0.01937    0.78274    0.60870    1.000
    H92      H        0.04165    0.79296    0.66046    1.000
    C130     C        0.99372    0.82061    0.57658    1.000
    H93      H        0.99854    0.85714    0.60756    1.000
    C131     C        0.96022    0.80581    0.49715    1.000
    H94      H        0.94337    0.83263    0.47746    1.000
    C132     C        0.97710    0.71393    0.48226    1.000
    C133     C        0.95217    0.75283    0.44914    1.000
    H95      H        0.93096    0.74337    0.39655    1.000
    N39      N        0.07399    0.58437    0.64624    1.000
    C134     C        0.05290    0.52349    0.67537    1.000
    H96      H        0.02424    0.50687    0.72173    1.000
    N40      N        0.07424    0.48712    0.63608    1.000
    C135     C        0.11502    0.52894    0.57320    1.000
    C136     C        0.15204    0.51868    0.50789    1.000
    H97      H        0.15104    0.47800    0.50291    1.000
    C137     C        0.11551    0.58851    0.57807    1.000
    C138     C        0.15368    0.64312    0.52004    1.000
    H98      H        0.15361    0.68344    0.52368    1.000
    C139     C        0.18878    0.56972    0.45327    1.000
    H99      H        0.21354    0.56342    0.41135    1.000
    C140     C        0.19052    0.63220    0.45802    1.000
    H100     H        0.21640    0.66609    0.41967    1.000
    Zn10     Zn       0.06575    0.67156    0.67937    1.000
    N41      N        0.69823    0.01543    0.90812    1.000
    C141     C        0.67573    0.97524    0.84069    1.000
    H101     H        0.68206    0.93859    0.83446    1.000
    N42      N        0.64327    0.99081    0.78211    1.000
    C142     C        0.67705    0.06205    0.89443    1.000
    C143     C        0.68604    0.11607    0.94203    1.000
    H102     H        0.70832    0.12629    0.99379    1.000
    C144     C        0.66039    0.15394    0.90991    1.000
    H103     H        0.66521    0.19047    0.94089    1.000
    C145     C        0.62689    0.13914    0.83048    1.000
    H104     H        0.61004    0.16596    0.81079    1.000
    C146     C        0.64377    0.04726    0.81559    1.000
    C147     C        0.61884    0.08616    0.78247    1.000
    H105     H        0.59763    0.07670    0.72988    1.000
    N43      N        0.74066    0.91770    0.97957    1.000
    C148     C        0.71957    0.85682    0.00870    1.000
    H106     H        0.69091    0.84020    0.05506    1.000
    N44      N        0.74091    0.82045    0.96941    1.000
    C149     C        0.78169    0.86227    0.90653    1.000
    C150     C        0.81871    0.85201    0.84122    1.000
    H107     H        0.81771    0.81133    0.83624    1.000
    C151     C        0.78218    0.92184    0.91140    1.000
    C152     C        0.82035    0.97645    0.85337    1.000
    H108     H        0.82028    0.01677    0.85701    1.000
    C153     C        0.85545    0.90305    0.78660    1.000
    H109     H        0.88021    0.89675    0.74468    1.000
    C154     C        0.85719    0.96553    0.79135    1.000
    H110     H        0.88307    0.99942    0.75300    1.000
    Zn11     Zn       0.73242    0.00489    0.01270    1.000
    N45      N        0.36489    0.34877    0.24146    1.000
    C155     C        0.34239    0.30858    0.17403    1.000
    H111     H        0.34872    0.27193    0.16780    1.000
    N46      N        0.30993    0.32415    0.11545    1.000
    C156     C        0.34371    0.39539    0.22777    1.000
    C157     C        0.35270    0.44941    0.27537    1.000
    H112     H        0.37498    0.45963    0.32713    1.000
    C158     C        0.32705    0.48728    0.24325    1.000
    H113     H        0.33187    0.52381    0.27423    1.000
    C159     C        0.29355    0.47248    0.16382    1.000
    H114     H        0.27670    0.49930    0.14413    1.000
    C160     C        0.31043    0.38060    0.14893    1.000
    C161     C        0.28550    0.41950    0.11581    1.000
    H115     H        0.26429    0.41004    0.06322    1.000
    N47      N        0.40732    0.25104    0.31291    1.000
    C162     C        0.38623    0.19016    0.34204    1.000
    H116     H        0.35757    0.17354    0.38840    1.000
    N48      N        0.40757    0.15379    0.30275    1.000
    C163     C        0.44835    0.19561    0.23987    1.000
    C164     C        0.48537    0.18535    0.17456    1.000
    H117     H        0.48437    0.14467    0.16958    1.000
    C165     C        0.44884    0.25518    0.24474    1.000
    C166     C        0.48701    0.30979    0.18671    1.000
    H118     H        0.48694    0.35011    0.19035    1.000
    C167     C        0.52211    0.23639    0.11994    1.000
    H119     H        0.54687    0.23009    0.07802    1.000
    C168     C        0.52385    0.29887    0.12469    1.000
    H120     H        0.54973    0.33276    0.08634    1.000
    Zn12     Zn       0.39908    0.33823    0.34604    1.000
    N49      N        0.31790    0.34946    0.57479    1.000
    C169     C        0.35809    0.36715    0.50736    1.000
    H121     H        0.39474    0.41013    0.50113    1.000
    N50      N        0.34252    0.31912    0.44878    1.000
    C170     C        0.27128    0.28166    0.56110    1.000
    C171     C        0.21726    0.23663    0.60870    1.000
    H122     H        0.20704    0.24869    0.66046    1.000
    C172     C        0.17939    0.17311    0.57658    1.000
    H123     H        0.14286    0.14140    0.60756    1.000
    C173     C        0.19419    0.15441    0.49715    1.000
    H124     H        0.16737    0.11074    0.47746    1.000
    C174     C        0.28607    0.26317    0.48226    1.000
    C175     C        0.24717    0.19934    0.44914    1.000
    H125     H        0.25663    0.18759    0.39655    1.000
    N51      N        0.41563    0.48962    0.64624    1.000
    C176     C        0.47651    0.52941    0.67537    1.000
    H126     H        0.49313    0.51737    0.72173    1.000
    N52      N        0.51288    0.58712    0.63608    1.000
    C177     C        0.47106    0.58608    0.57320    1.000
    C178     C        0.48132    0.63336    0.50789    1.000
    H127     H        0.52200    0.67304    0.50291    1.000
    C179     C        0.41149    0.52700    0.57807    1.000
    C180     C        0.35688    0.51056    0.52004    1.000
    H128     H        0.31656    0.47017    0.52368    1.000
    C181     C        0.43028    0.61906    0.45327    1.000
    H129     H        0.43658    0.65012    0.41135    1.000
    C182     C        0.36780    0.55832    0.45802    1.000
    H130     H        0.33391    0.55031    0.41967    1.000
    Zn13     Zn       0.32844    0.39419    0.67937    1.000
    N53      N        0.98457    0.68279    0.90812    1.000
    C183     C        0.02476    0.70048    0.84069    1.000
    H131     H        0.06141    0.74346    0.83446    1.000
    N54      N        0.00919    0.65245    0.78211    1.000
    C184     C        0.93795    0.61499    0.89443    1.000
    C185     C        0.88393    0.56996    0.94203    1.000
    H132     H        0.87371    0.58202    0.99379    1.000
    C186     C        0.84606    0.50644    0.90991    1.000
    H133     H        0.80953    0.47473    0.94089    1.000
    C187     C        0.86086    0.48774    0.83048    1.000
    H134     H        0.83404    0.44407    0.81079    1.000
    C188     C        0.95274    0.59650    0.81559    1.000
    C189     C        0.91384    0.53267    0.78247    1.000
    H135     H        0.92330    0.52092    0.72988    1.000
    N55      N        0.08230    0.82295    0.97957    1.000
    C190     C        0.14318    0.86274    0.00870    1.000
    H136     H        0.15980    0.85070    0.05506    1.000
    N56      N        0.17955    0.92045    0.96941    1.000
    C191     C        0.13773    0.91941    0.90653    1.000
    C192     C        0.14799    0.96669    0.84122    1.000
    H137     H        0.18867    0.00637    0.83624    1.000
    C193     C        0.07816    0.86033    0.91140    1.000
    C194     C        0.02355    0.84389    0.85337    1.000
    H138     H        0.98323    0.80350    0.85701    1.000
    C195     C        0.09695    0.95239    0.78660    1.000
    H139     H        0.10325    0.98345    0.74468    1.000
    C196     C        0.03447    0.89165    0.79135    1.000
    H140     H        0.00058    0.88364    0.75300    1.000
    Zn14     Zn       0.99511    0.72752    0.01270    1.000
    N57      N        0.65123    0.01613    0.24146    1.000
    C197     C        0.69142    0.03382    0.17403    1.000
    H141     H        0.72807    0.07680    0.16780    1.000
    N58      N        0.67585    0.98579    0.11545    1.000
    C198     C        0.60461    0.94833    0.22777    1.000
    C199     C        0.55059    0.90330    0.27537    1.000
    H142     H        0.54037    0.91536    0.32713    1.000
    C200     C        0.51272    0.83978    0.24325    1.000
    H143     H        0.47619    0.80807    0.27423    1.000
    C201     C        0.52752    0.82108    0.16382    1.000
    H144     H        0.50070    0.77741    0.14413    1.000
    C202     C        0.61940    0.92984    0.14893    1.000
    C203     C        0.58050    0.86601    0.11581    1.000
    H145     H        0.58996    0.85426    0.06322    1.000
    N59      N        0.74896    0.15629    0.31291    1.000
    C204     C        0.80984    0.19608    0.34204    1.000
    H146     H        0.82646    0.18404    0.38840    1.000
    N60      N        0.84621    0.25379    0.30275    1.000
    C205     C        0.80439    0.25275    0.23987    1.000
    C206     C        0.81465    0.30003    0.17456    1.000
    H147     H        0.85533    0.33971    0.16958    1.000
    C207     C        0.74482    0.19367    0.24474    1.000
    C208     C        0.69021    0.17723    0.18671    1.000
    H148     H        0.64989    0.13684    0.19035    1.000
    C209     C        0.76361    0.28573    0.11994    1.000
    H149     H        0.76991    0.31679    0.07802    1.000
    C210     C        0.70113    0.22499    0.12469    1.000
    H150     H        0.66724    0.21698    0.08634    1.000
    Zn15     Zn       0.66177    0.06086    0.34604    1.000
    N61      N        0.65054    0.96844    0.57479    1.000
    C211     C        0.63285    0.99094    0.50736    1.000
    H151     H        0.58987    0.98461    0.50113    1.000
    N62      N        0.68088    0.02340    0.44878    1.000
    C212     C        0.71834    0.98962    0.56110    1.000
    C213     C        0.76337    0.98063    0.60870    1.000
    H152     H        0.75131    0.95835    0.66046    1.000
    C214     C        0.82689    0.00628    0.57658    1.000
    H153     H        0.85860    0.00146    0.60756    1.000
    C215     C        0.84559    0.03978    0.49715    1.000
    H154     H        0.88926    0.05663    0.47746    1.000
    C216     C        0.73683    0.02290    0.48226    1.000
    C217     C        0.80066    0.04783    0.44914    1.000
    H155     H        0.81241    0.06904    0.39655    1.000
    N63      N        0.51038    0.92601    0.64624    1.000
    C218     C        0.47059    0.94710    0.67537    1.000
    H156     H        0.48263    0.97576    0.72173    1.000
    N64      N        0.41288    0.92576    0.63608    1.000
    C219     C        0.41392    0.88498    0.57320    1.000
    C220     C        0.36664    0.84796    0.50789    1.000
    H157     H        0.32696    0.84896    0.50291    1.000
    C221     C        0.47300    0.88449    0.57807    1.000
    C222     C        0.48944    0.84632    0.52004    1.000
    H158     H        0.52983    0.84639    0.52368    1.000
    C223     C        0.38094    0.81122    0.45327    1.000
    H159     H        0.34988    0.78646    0.41135    1.000
    C224     C        0.44168    0.80948    0.45802    1.000
    H160     H        0.44969    0.78360    0.41967    1.000
    Zn16     Zn       0.60581    0.93425    0.67937    1.000
    N65      N        0.31721    0.30177    0.90812    1.000
    C225     C        0.29952    0.32427    0.84069    1.000
    H161     H        0.25654    0.31794    0.83446    1.000
    N66      N        0.34755    0.35673    0.78211    1.000
    C226     C        0.38501    0.32295    0.89443    1.000
    C227     C        0.43004    0.31396    0.94203    1.000
    H162     H        0.41798    0.29168    0.99379    1.000
    C228     C        0.49356    0.33961    0.90991    1.000
    H163     H        0.52527    0.33479    0.94089    1.000
    C229     C        0.51226    0.37311    0.83048    1.000
    H164     H        0.55593    0.38996    0.81079    1.000
    C230     C        0.40350    0.35623    0.81559    1.000
    C231     C        0.46733    0.38116    0.78247    1.000
    H165     H        0.47908    0.40237    0.72988    1.000
    N67      N        0.17705    0.25934    0.97957    1.000
    C232     C        0.13726    0.28043    0.00870    1.000
    H166     H        0.14930    0.30909    0.05506    1.000
    N68      N        0.07955    0.25909    0.96941    1.000
    C233     C        0.08059    0.21831    0.90653    1.000
    C234     C        0.03331    0.18129    0.84122    1.000
    H167     H        0.99363    0.18229    0.83624    1.000
    C235     C        0.13967    0.21782    0.91140    1.000
    C236     C        0.15611    0.17965    0.85337    1.000
    H168     H        0.19650    0.17972    0.85701    1.000
    C237     C        0.04761    0.14455    0.78660    1.000
    H169     H        0.01655    0.11979    0.74468    1.000
    C238     C        0.10835    0.14281    0.79135    1.000
    H170     H        0.11636    0.11693    0.75300    1.000
    Zn17     Zn       0.27248    0.26758    0.01270    1.000
    N69      N        0.98387    0.63511    0.24146    1.000
    C239     C        0.96618    0.65761    0.17403    1.000
    H171     H        0.92320    0.65128    0.16780    1.000
    N70      N        0.01421    0.69007    0.11545    1.000
    C240     C        0.05167    0.65629    0.22777    1.000
    C241     C        0.09670    0.64730    0.27537    1.000
    H172     H        0.08464    0.62502    0.32713    1.000
    C242     C        0.16022    0.67295    0.24325    1.000
    H173     H        0.19193    0.66813    0.27423    1.000
    C243     C        0.17892    0.70645    0.16382    1.000
    H174     H        0.22259    0.72330    0.14413    1.000
    C244     C        0.07016    0.68957    0.14893    1.000
    C245     C        0.13399    0.71450    0.11581    1.000
    H175     H        0.14574    0.73571    0.06322    1.000
    N71      N        0.84371    0.59268    0.31291    1.000
    C246     C        0.80392    0.61377    0.34204    1.000
    H176     H        0.81596    0.64243    0.38840    1.000
    N72      N        0.74621    0.59243    0.30275    1.000
    C247     C        0.74725    0.55165    0.23987    1.000
    C248     C        0.69997    0.51463    0.17456    1.000
    H177     H        0.66029    0.51563    0.16958    1.000
    C249     C        0.80633    0.55116    0.24474    1.000
    C250     C        0.82277    0.51299    0.18671    1.000
    H178     H        0.86316    0.51306    0.19035    1.000
    C251     C        0.71427    0.47789    0.11994    1.000
    H179     H        0.68321    0.45313    0.07802    1.000
    C252     C        0.77501    0.47615    0.12469    1.000
    H180     H        0.78302    0.45027    0.08634    1.000
    Zn18     Zn       0.93914    0.60092    0.34604    1.000
