# CIF file generated by openbabel 3.1.0, see https://openbabel.org
data_I
_chemical_name_common 'OBUFEX_clean'
_cell_length_a 11.442
_cell_length_b 13.373
_cell_length_c 15.807
_cell_angle_alpha 90
_cell_angle_beta 90
_cell_angle_gamma 101.36
_space_group_name_H-M_alt 'P 1'
_space_group_name_Hall 'P 1'
loop_
    _symmetry_equiv_pos_as_xyz
    x,y,z
loop_
    _atom_site_label
    _atom_site_type_symbol
    _atom_site_fract_x
    _atom_site_fract_y
    _atom_site_fract_z
    _atom_site_occupancy
    Zn1      Zn       0.42889    0.89163    0.57884    1.000
    Zn2      Zn       0.57111    0.60837    0.07884    1.000
    Zn3      Zn       0.57111    0.10837    0.42116    1.000
    Zn4      Zn       0.42889    0.39163    0.92116    1.000
    H1       H        0.60980    0.82650    0.88450    1.000
    H2       H        0.60040    0.84120    0.78640    1.000
    H3       H        0.38410    0.61790    0.76600    1.000
    H4       H        0.03900    0.96360    0.68880    1.000
    H5       H        0.23780    0.96050    0.68440    1.000
    H6       H        0.19980    0.80600    0.47800    1.000
    H7       H        0.00120    0.80840    0.47230    1.000
    H8       H        0.86640    0.00220    0.66330    1.000
    H9       H        0.66680    0.00230    0.66020    1.000
    H10      H        0.61400    0.77630    0.50140    1.000
    H11      H        0.81140    0.77230    0.49970    1.000
    H12      H        0.39020    0.67350    0.38450    1.000
    H13      H        0.39960    0.65880    0.28640    1.000
    H14      H        0.61590    0.88210    0.26600    1.000
    H15      H        0.96100    0.53640    0.18880    1.000
    H16      H        0.76220    0.53950    0.18440    1.000
    H17      H        0.80020    0.69400    0.97800    1.000
    H18      H        0.99880    0.69160    0.97230    1.000
    H19      H        0.13360    0.49780    0.16330    1.000
    H20      H        0.33320    0.49770    0.16020    1.000
    H21      H        0.38600    0.72370    0.00140    1.000
    H22      H        0.18860    0.72770    0.99970    1.000
    H23      H        0.39020    0.17350    0.11550    1.000
    H24      H        0.39960    0.15880    0.21360    1.000
    H25      H        0.61590    0.38210    0.23400    1.000
    H26      H        0.96100    0.03640    0.31120    1.000
    H27      H        0.76220    0.03950    0.31560    1.000
    H28      H        0.80020    0.19400    0.52200    1.000
    H29      H        0.99880    0.19160    0.52770    1.000
    H30      H        0.13360    0.99780    0.33670    1.000
    H31      H        0.33320    0.99770    0.33980    1.000
    H32      H        0.38600    0.22370    0.49860    1.000
    H33      H        0.18860    0.22770    0.50030    1.000
    H34      H        0.60980    0.32650    0.61550    1.000
    H35      H        0.60040    0.34120    0.71360    1.000
    H36      H        0.38410    0.11790    0.73400    1.000
    H37      H        0.03900    0.46360    0.81120    1.000
    H38      H        0.23780    0.46050    0.81560    1.000
    H39      H        0.19980    0.30600    0.02200    1.000
    H40      H        0.00120    0.30840    0.02770    1.000
    H41      H        0.86640    0.50220    0.83670    1.000
    H42      H        0.66680    0.50230    0.83980    1.000
    H43      H        0.61400    0.27630    0.99860    1.000
    H44      H        0.81140    0.27230    0.00030    1.000
    C1       C        0.42480    0.74620    0.69022    1.000
    C2       C        0.73740    0.76840    0.81869    1.000
    C3       C        0.61370    0.79377    0.83010    1.000
    C4       C        0.43760    0.67989    0.76306    1.000
    C5       C        0.51865    0.69989    0.82547    1.000
    C6       C        0.51746    0.62279    0.89441    1.000
    C7       C        0.06940    0.93220    0.64365    1.000
    C8       C        0.18960    0.93000    0.64036    1.000
    C9       C        0.16724    0.84080    0.51999    1.000
    C10      C        0.04705    0.84040    0.51685    1.000
    C11      C        0.99471    0.88777    0.58000    1.000
    C12      C        0.86503    0.88894    0.58066    1.000
    C13      C        0.81687    0.95578    0.62887    1.000
    C14      C        0.69638    0.95536    0.62717    1.000
    C15      C        0.66541    0.82337    0.53411    1.000
    C16      C        0.78438    0.82052    0.53286    1.000
    C17      C        0.57520    0.75380    0.19022    1.000
    C18      C        0.26260    0.73160    0.31869    1.000
    C19      C        0.38630    0.70623    0.33010    1.000
    C20      C        0.56240    0.82011    0.26306    1.000
    C21      C        0.48135    0.80011    0.32547    1.000
    C22      C        0.48254    0.87721    0.39441    1.000
    C23      C        0.93060    0.56780    0.14365    1.000
    C24      C        0.81040    0.57000    0.14036    1.000
    C25      C        0.83276    0.65920    0.01999    1.000
    C26      C        0.95295    0.65960    0.01685    1.000
    C27      C        0.00529    0.61223    0.08000    1.000
    C28      C        0.13497    0.61106    0.08066    1.000
    C29      C        0.18313    0.54422    0.12887    1.000
    C30      C        0.30362    0.54464    0.12717    1.000
    C31      C        0.33459    0.67663    0.03411    1.000
    C32      C        0.21562    0.67948    0.03286    1.000
    C33      C        0.57520    0.25380    0.30978    1.000
    C34      C        0.26260    0.23160    0.18131    1.000
    C35      C        0.38630    0.20623    0.16990    1.000
    C36      C        0.56240    0.32011    0.23694    1.000
    C37      C        0.48135    0.30011    0.17453    1.000
    C38      C        0.48254    0.37721    0.10559    1.000
    C39      C        0.93060    0.06780    0.35635    1.000
    C40      C        0.81040    0.07000    0.35964    1.000
    C41      C        0.83276    0.15920    0.48001    1.000
    C42      C        0.95295    0.15960    0.48315    1.000
    C43      C        0.00529    0.11223    0.42000    1.000
    C44      C        0.13497    0.11106    0.41934    1.000
    C45      C        0.18313    0.04422    0.37113    1.000
    C46      C        0.30362    0.04464    0.37283    1.000
    C47      C        0.33459    0.17663    0.46589    1.000
    C48      C        0.21562    0.17948    0.46714    1.000
    C49      C        0.42480    0.24620    0.80978    1.000
    C50      C        0.73740    0.26840    0.68131    1.000
    C51      C        0.61370    0.29377    0.66990    1.000
    C52      C        0.43760    0.17989    0.73694    1.000
    C53      C        0.51865    0.19989    0.67453    1.000
    C54      C        0.51746    0.12279    0.60559    1.000
    C55      C        0.06940    0.43220    0.85635    1.000
    C56      C        0.18960    0.43000    0.85964    1.000
    C57      C        0.16724    0.34080    0.98001    1.000
    C58      C        0.04705    0.34040    0.98315    1.000
    C59      C        0.99471    0.38777    0.92000    1.000
    C60      C        0.86503    0.38894    0.91934    1.000
    C61      C        0.81687    0.45578    0.87113    1.000
    C62      C        0.69638    0.45536    0.87283    1.000
    C63      C        0.66541    0.32337    0.96589    1.000
    C64      C        0.78438    0.32052    0.96714    1.000
    N1       N        0.61990    0.88936    0.57928    1.000
    N2       N        0.23948    0.88807    0.57974    1.000
    N3       N        0.38010    0.61064    0.07928    1.000
    N4       N        0.76052    0.61193    0.07974    1.000
    N5       N        0.38010    0.11064    0.42072    1.000
    N6       N        0.76052    0.11193    0.42026    1.000
    N7       N        0.61990    0.38936    0.92072    1.000
    N8       N        0.23948    0.38807    0.92026    1.000
    O1       O        0.82474    0.83876    0.84373    1.000
    O2       O        0.75163    0.69085    0.78926    1.000
    O3       O        0.41652    0.71169    0.61810    1.000
    O4       O        0.42255    0.83870    0.70521    1.000
    O5       O        0.58283    0.65173    0.95734    1.000
    O6       O        0.45077    0.53731    0.88545    1.000
    O7       O        0.17526    0.66124    0.34373    1.000
    O8       O        0.24837    0.80915    0.28926    1.000
    O9       O        0.58348    0.78831    0.11810    1.000
    O10      O        0.57745    0.66130    0.20521    1.000
    O11      O        0.41717    0.84827    0.45734    1.000
    O12      O        0.54923    0.96269    0.38545    1.000
    O13      O        0.17526    0.16124    0.15627    1.000
    O14      O        0.24837    0.30915    0.21074    1.000
    O15      O        0.58348    0.28831    0.38190    1.000
    O16      O        0.57745    0.16130    0.29479    1.000
    O17      O        0.41717    0.34827    0.04266    1.000
    O18      O        0.54923    0.46269    0.11455    1.000
    O19      O        0.82474    0.33876    0.65627    1.000
    O20      O        0.75163    0.19085    0.71074    1.000
    O21      O        0.41652    0.21169    0.88190    1.000
    O22      O        0.42255    0.33870    0.79479    1.000
    O23      O        0.58283    0.15173    0.54266    1.000
    O24      O        0.45077    0.03731    0.61455    1.000
