# CIF file generated by openbabel 3.1.0, see https://openbabel.org
data_I
_chemical_name_common 'image0'
_cell_length_a 24.0967
_cell_length_b 18.4666
_cell_length_c 37.614
_cell_angle_alpha 90
_cell_angle_beta 94.2641
_cell_angle_gamma 90
_space_group_name_H-M_alt 'P 1'
_space_group_name_Hall 'P 1'
loop_
    _symmetry_equiv_pos_as_xyz
    x,y,z
loop_
    _atom_site_label
    _atom_site_type_symbol
    _atom_site_fract_x
    _atom_site_fract_y
    _atom_site_fract_z
    _atom_site_occupancy
    Zn1      Zn       0.60131    0.36800    0.67627    1.000
    Zn2      Zn       0.59171    0.36853    0.59736    1.000
    O1       O        0.14739    0.95090    0.60581    1.000
    O2       O        0.65652    0.29990    0.60734    1.000
    O3       O        0.53844    0.28528    0.60461    1.000
    O4       O        0.02976    0.93558    0.61128    1.000
    O5       O        0.16534    0.93270    0.66438    1.000
    O6       O        0.53423    0.30402    0.66362    1.000
    O7       O        0.04774    0.95463    0.66997    1.000
    O8       O        0.65247    0.28318    0.66629    1.000
    N1       N        0.10680    0.13054    0.22981    1.000
    N2       N        0.52419    0.38115    0.49320    1.000
    N3       N        0.57516    0.38053    0.54454    1.000
    N4       N        0.35271    0.32880    0.35194    1.000
    N5       N        0.30670    0.29850    0.33492    1.000
    N6       N        0.31398    0.26420    0.39240    1.000
    C1       C        0.93034    0.00910    0.61083    1.000
    H1       H        0.93700    0.98000    0.59140    1.000
    C2       C        0.22545    0.00880    0.63475    1.000
    C3       C        0.01933    0.96297    0.64039    1.000
    N7       N        0.13085    0.14120    0.28694    1.000
    C4       C        0.96863    0.01090    0.64023    1.000
    C5       C        0.23572    0.04870    0.60527    1.000
    H2       H        0.21070    0.04710    0.58520    1.000
    C6       C        0.17531    0.96057    0.63494    1.000
    C7       C        0.26276    0.01190    0.66476    1.000
    H3       H        0.25560    0.98540    0.68500    1.000
    C8       C        0.32169    0.09480    0.63449    1.000
    C9       C        0.67298    0.27240    0.63685    1.000
    C10      C        0.48118    0.36320    0.46638    1.000
    C11      C        0.51763    0.27500    0.63431    1.000
    C12      C        0.35584    0.30700    0.38631    1.000
    C13      C        0.56602    0.43080    0.49052    1.000
    H4       H        0.57200    0.45940    0.47080    1.000
    C14      C        0.31031    0.05370    0.66485    1.000
    H5       H        0.33500    0.05490    0.68500    1.000
    C15      C        0.59691    0.43010    0.52219    1.000
    H6       H        0.62800    0.45880    0.52790    1.000
    C16      C        0.15980    0.16230    0.31994    1.000
    C17      C        0.72298    0.22330    0.63703    1.000
    C18      C        0.46457    0.41440    0.44085    1.000
    H7       H        0.48040    0.46040    0.44140    1.000
    C19      C        0.40023    0.32900    0.41318    1.000
    C20      C        0.37290    0.13940    0.63470    1.000
    C21      C        0.42378    0.39560    0.41433    1.000
    H8       H        0.41240    0.42950    0.39700    1.000
    C22      C        0.28332    0.09150    0.60505    1.000
    H9       H        0.28950    0.11850    0.58480    1.000
    C23      C        0.88183    0.05060    0.61013    1.000
    H10      H        0.85630    0.04890    0.59040    1.000
    C24      C        0.46849    0.22610    0.63441    1.000
    C25      C        0.74860    0.20950    0.60607    1.000
    H11      H        0.73340    0.22840    0.58460    1.000
    C26      C        0.28479    0.25990    0.35992    1.000
    C27      C        0.87170    0.09470    0.63898    1.000
    C28      C        0.44532    0.19560    0.60292    1.000
    H12      H        0.46170    0.20430    0.58170    1.000
    C29      C        0.82012    0.13930    0.63852    1.000
    C30      C        0.53115    0.35280    0.52621    1.000
    H13      H        0.50790    0.31790    0.53510    1.000
    C31      C        0.15990    0.15790    0.38288    1.000
    H14      H        0.14390    0.14440    0.40360    1.000
    C32      C        0.44363    0.21150    0.66605    1.000
    H15      H        0.45920    0.23030    0.68740    1.000
    C33      C        0.39840    0.15250    0.60265    1.000
    H16      H        0.38360    0.13210    0.58140    1.000
    C34      C        0.14088    0.15880    0.25431    1.000
    H17      H        0.17010    0.18900    0.24910    1.000
    C35      C        0.20806    0.20130    0.32157    1.000
    H18      H        0.22380    0.21560    0.30080    1.000
    C36      C        0.23300    0.21890    0.35455    1.000
    C37      C        0.95918    0.05430    0.66917    1.000
    H19      H        0.98490    0.05540    0.68890    1.000
    C38      C        0.79640    0.16810    0.60650    1.000
    H20      H        0.81290    0.15930    0.58540    1.000
    C39      C        0.45760    0.29570    0.46614    1.000
    H21      H        0.46920    0.26170    0.48330    1.000
    C40      C        0.41640    0.27890    0.44000    1.000
    H22      H        0.39910    0.23390    0.44020    1.000
    C41      C        0.13630    0.14030    0.35104    1.000
    H23      H        0.10380    0.11290    0.34940    1.000
    C42      C        0.91127    0.09620    0.66874    1.000
    H24      H        0.90510    0.12550    0.68820    1.000
    C43      C        0.39667    0.16980    0.66598    1.000
    H25      H        0.38040    0.16170    0.68730    1.000
    C44      C        0.79370    0.15230    0.66964    1.000
    H26      H        0.80850    0.13300    0.69110    1.000
    C45      C        0.20670    0.19510    0.38420    1.000
    H27      H        0.22350    0.20640    0.40660    1.000
    C46      C        0.74580    0.19360    0.66913    1.000
    H28      H        0.72870    0.20170    0.69010    1.000
    C47      C        0.08840    0.06710    0.24770    1.000
    H29      H        0.06830    0.02920    0.23670    1.000
    C48      C        0.10450    0.07050    0.28290    1.000
    H30      H        0.09990    0.03580    0.30040    1.000
    C49      C        0.39060    0.37230    0.33187    1.000
    H31      H        0.37760    0.42140    0.33040    1.000
    H32      H        0.39190    0.35280    0.30830    1.000
    H33      H        0.42730    0.37120    0.34380    1.000
    C50      C        0.05610    0.12540    0.24740    1.000
    H34      H        0.02110    0.11660    0.23610    1.000
    C51      C        0.06690    0.13530    0.28240    1.000
    H35      H        0.04180    0.13800    0.30000    1.000
    Zn3      Zn       0.10131    0.86800    0.67627    1.000
    Zn4      Zn       0.09171    0.86853    0.59736    1.000
    O9       O        0.64739    0.45090    0.60581    1.000
    O10      O        0.15652    0.79990    0.60734    1.000
    O11      O        0.03844    0.78528    0.60461    1.000
    O12      O        0.52976    0.43558    0.61128    1.000
    O13      O        0.66534    0.43270    0.66438    1.000
    O14      O        0.03423    0.80402    0.66362    1.000
    O15      O        0.54774    0.45463    0.66997    1.000
    O16      O        0.15247    0.78318    0.66629    1.000
    N8       N        0.60680    0.63054    0.22981    1.000
    N9       N        0.02419    0.88115    0.49320    1.000
    N10      N        0.07516    0.88053    0.54454    1.000
    N11      N        0.85271    0.82880    0.35194    1.000
    N12      N        0.80670    0.79850    0.33492    1.000
    N13      N        0.81398    0.76420    0.39240    1.000
    C52      C        0.43034    0.50910    0.61083    1.000
    H36      H        0.43700    0.48000    0.59140    1.000
    C53      C        0.72545    0.50880    0.63475    1.000
    C54      C        0.51933    0.46297    0.64039    1.000
    N14      N        0.63085    0.64120    0.28694    1.000
    C55      C        0.46863    0.51090    0.64023    1.000
    C56      C        0.73572    0.54870    0.60527    1.000
    H37      H        0.71070    0.54710    0.58520    1.000
    C57      C        0.67531    0.46057    0.63494    1.000
    C58      C        0.76276    0.51190    0.66476    1.000
    H38      H        0.75560    0.48540    0.68500    1.000
    C59      C        0.82169    0.59480    0.63449    1.000
    C60      C        0.17298    0.77240    0.63685    1.000
    C61      C        0.98118    0.86320    0.46638    1.000
    C62      C        0.01763    0.77500    0.63431    1.000
    C63      C        0.85584    0.80700    0.38631    1.000
    C64      C        0.06602    0.93080    0.49052    1.000
    H39      H        0.07200    0.95940    0.47080    1.000
    C65      C        0.81031    0.55370    0.66485    1.000
    H40      H        0.83500    0.55490    0.68500    1.000
    C66      C        0.09691    0.93010    0.52219    1.000
    H41      H        0.12800    0.95880    0.52790    1.000
    C67      C        0.65980    0.66230    0.31994    1.000
    C68      C        0.22298    0.72330    0.63703    1.000
    C69      C        0.96457    0.91440    0.44085    1.000
    H42      H        0.98040    0.96040    0.44140    1.000
    C70      C        0.90023    0.82900    0.41318    1.000
    C71      C        0.87290    0.63940    0.63470    1.000
    C72      C        0.92378    0.89560    0.41433    1.000
    H43      H        0.91240    0.92950    0.39700    1.000
    C73      C        0.78332    0.59150    0.60505    1.000
    H44      H        0.78950    0.61850    0.58480    1.000
    C74      C        0.38183    0.55060    0.61013    1.000
    H45      H        0.35630    0.54890    0.59040    1.000
    C75      C        0.96849    0.72610    0.63441    1.000
    C76      C        0.24860    0.70950    0.60607    1.000
    H46      H        0.23340    0.72840    0.58460    1.000
    C77      C        0.78479    0.75990    0.35992    1.000
    C78      C        0.37170    0.59470    0.63898    1.000
    C79      C        0.94532    0.69560    0.60292    1.000
    H47      H        0.96170    0.70430    0.58170    1.000
    C80      C        0.32012    0.63930    0.63852    1.000
    C81      C        0.03115    0.85280    0.52621    1.000
    H48      H        0.00790    0.81790    0.53510    1.000
    C82      C        0.65990    0.65790    0.38288    1.000
    H49      H        0.64390    0.64440    0.40360    1.000
    C83      C        0.94363    0.71150    0.66605    1.000
    H50      H        0.95920    0.73030    0.68740    1.000
    C84      C        0.89840    0.65250    0.60265    1.000
    H51      H        0.88360    0.63210    0.58140    1.000
    C85      C        0.64088    0.65880    0.25431    1.000
    H52      H        0.67010    0.68900    0.24910    1.000
    C86      C        0.70806    0.70130    0.32157    1.000
    H53      H        0.72380    0.71560    0.30080    1.000
    C87      C        0.73300    0.71890    0.35455    1.000
    C88      C        0.45918    0.55430    0.66917    1.000
    H54      H        0.48490    0.55540    0.68890    1.000
    C89      C        0.29640    0.66810    0.60650    1.000
    H55      H        0.31290    0.65930    0.58540    1.000
    C90      C        0.95760    0.79570    0.46614    1.000
    H56      H        0.96920    0.76170    0.48330    1.000
    C91      C        0.91640    0.77890    0.44000    1.000
    H57      H        0.89910    0.73390    0.44020    1.000
    C92      C        0.63630    0.64030    0.35104    1.000
    H58      H        0.60380    0.61290    0.34940    1.000
    C93      C        0.41127    0.59620    0.66874    1.000
    H59      H        0.40510    0.62550    0.68820    1.000
    C94      C        0.89667    0.66980    0.66598    1.000
    H60      H        0.88040    0.66170    0.68730    1.000
    C95      C        0.29370    0.65230    0.66964    1.000
    H61      H        0.30850    0.63300    0.69110    1.000
    C96      C        0.70670    0.69510    0.38420    1.000
    H62      H        0.72350    0.70640    0.40660    1.000
    C97      C        0.24580    0.69360    0.66913    1.000
    H63      H        0.22870    0.70170    0.69010    1.000
    C98      C        0.58840    0.56710    0.24770    1.000
    H64      H        0.56830    0.52920    0.23670    1.000
    C99      C        0.60450    0.57050    0.28290    1.000
    H65      H        0.59990    0.53580    0.30040    1.000
    C100     C        0.89060    0.87230    0.33187    1.000
    H66      H        0.87760    0.92140    0.33040    1.000
    H67      H        0.89190    0.85280    0.30830    1.000
    H68      H        0.92730    0.87120    0.34380    1.000
    C101     C        0.55610    0.62540    0.24740    1.000
    H69      H        0.52110    0.61660    0.23610    1.000
    C102     C        0.56690    0.63530    0.28240    1.000
    H70      H        0.54180    0.63800    0.30000    1.000
    Zn5      Zn       0.60131    0.63200    0.17627    1.000
    Zn6      Zn       0.59171    0.63147    0.09736    1.000
    O17      O        0.14739    0.04910    0.10581    1.000
    O18      O        0.65652    0.70010    0.10734    1.000
    O19      O        0.53844    0.71472    0.10461    1.000
    O20      O        0.02976    0.06442    0.11128    1.000
    O21      O        0.16534    0.06730    0.16438    1.000
    O22      O        0.53423    0.69598    0.16362    1.000
    O23      O        0.04774    0.04537    0.16997    1.000
    O24      O        0.65247    0.71682    0.16629    1.000
    N15      N        0.10680    0.86946    0.72981    1.000
    N16      N        0.52419    0.61885    0.99320    1.000
    N17      N        0.57516    0.61947    0.04454    1.000
    N18      N        0.35271    0.67120    0.85194    1.000
    N19      N        0.30670    0.70150    0.83492    1.000
    N20      N        0.31398    0.73580    0.89240    1.000
    C103     C        0.93034    0.99090    0.11083    1.000
    H71      H        0.93700    0.02000    0.09140    1.000
    C104     C        0.22545    0.99120    0.13475    1.000
    C105     C        0.01933    0.03703    0.14039    1.000
    N21      N        0.13085    0.85880    0.78694    1.000
    C106     C        0.96863    0.98910    0.14023    1.000
    C107     C        0.23572    0.95130    0.10527    1.000
    H72      H        0.21070    0.95290    0.08520    1.000
    C108     C        0.17531    0.03943    0.13494    1.000
    C109     C        0.26276    0.98810    0.16476    1.000
    H73      H        0.25560    0.01460    0.18500    1.000
    C110     C        0.32169    0.90520    0.13449    1.000
    C111     C        0.67298    0.72760    0.13685    1.000
    C112     C        0.48118    0.63680    0.96638    1.000
    C113     C        0.51763    0.72500    0.13431    1.000
    C114     C        0.35584    0.69300    0.88631    1.000
    C115     C        0.56602    0.56920    0.99052    1.000
    H74      H        0.57200    0.54060    0.97080    1.000
    C116     C        0.31031    0.94630    0.16485    1.000
    H75      H        0.33500    0.94510    0.18500    1.000
    C117     C        0.59691    0.56990    0.02219    1.000
    H76      H        0.62800    0.54120    0.02790    1.000
    C118     C        0.15980    0.83770    0.81994    1.000
    C119     C        0.72298    0.77670    0.13703    1.000
    C120     C        0.46457    0.58560    0.94085    1.000
    H77      H        0.48040    0.53960    0.94140    1.000
    C121     C        0.40023    0.67100    0.91318    1.000
    C122     C        0.37290    0.86060    0.13470    1.000
    C123     C        0.42378    0.60440    0.91433    1.000
    H78      H        0.41240    0.57050    0.89700    1.000
    C124     C        0.28332    0.90850    0.10505    1.000
    H79      H        0.28950    0.88150    0.08480    1.000
    C125     C        0.88183    0.94940    0.11013    1.000
    H80      H        0.85630    0.95110    0.09040    1.000
    C126     C        0.46849    0.77390    0.13441    1.000
    C127     C        0.74860    0.79050    0.10607    1.000
    H81      H        0.73340    0.77160    0.08460    1.000
    C128     C        0.28479    0.74010    0.85992    1.000
    C129     C        0.87170    0.90530    0.13898    1.000
    C130     C        0.44532    0.80440    0.10292    1.000
    H82      H        0.46170    0.79570    0.08170    1.000
    C131     C        0.82012    0.86070    0.13852    1.000
    C132     C        0.53115    0.64720    0.02621    1.000
    H83      H        0.50790    0.68210    0.03510    1.000
    C133     C        0.15990    0.84210    0.88288    1.000
    H84      H        0.14390    0.85560    0.90360    1.000
    C134     C        0.44363    0.78850    0.16605    1.000
    H85      H        0.45920    0.76970    0.18740    1.000
    C135     C        0.39840    0.84750    0.10265    1.000
    H86      H        0.38360    0.86790    0.08140    1.000
    C136     C        0.14088    0.84120    0.75431    1.000
    H87      H        0.17010    0.81100    0.74910    1.000
    C137     C        0.20806    0.79870    0.82157    1.000
    H88      H        0.22380    0.78440    0.80080    1.000
    C138     C        0.23300    0.78110    0.85455    1.000
    C139     C        0.95918    0.94570    0.16917    1.000
    H89      H        0.98490    0.94460    0.18890    1.000
    C140     C        0.79640    0.83190    0.10650    1.000
    H90      H        0.81290    0.84070    0.08540    1.000
    C141     C        0.45760    0.70430    0.96614    1.000
    H91      H        0.46920    0.73830    0.98330    1.000
    C142     C        0.41640    0.72110    0.94000    1.000
    H92      H        0.39910    0.76610    0.94020    1.000
    C143     C        0.13630    0.85970    0.85104    1.000
    H93      H        0.10380    0.88710    0.84940    1.000
    C144     C        0.91127    0.90380    0.16874    1.000
    H94      H        0.90510    0.87450    0.18820    1.000
    C145     C        0.39667    0.83020    0.16598    1.000
    H95      H        0.38040    0.83830    0.18730    1.000
    C146     C        0.79370    0.84770    0.16964    1.000
    H96      H        0.80850    0.86700    0.19110    1.000
    C147     C        0.20670    0.80490    0.88420    1.000
    H97      H        0.22350    0.79360    0.90660    1.000
    C148     C        0.74580    0.80640    0.16913    1.000
    H98      H        0.72870    0.79830    0.19010    1.000
    C149     C        0.08840    0.93290    0.74770    1.000
    H99      H        0.06830    0.97080    0.73670    1.000
    C150     C        0.10450    0.92950    0.78290    1.000
    H100     H        0.09990    0.96420    0.80040    1.000
    C151     C        0.39060    0.62770    0.83187    1.000
    H101     H        0.37760    0.57860    0.83040    1.000
    H102     H        0.39190    0.64720    0.80830    1.000
    H103     H        0.42730    0.62880    0.84380    1.000
    C152     C        0.05610    0.87460    0.74740    1.000
    H104     H        0.02110    0.88340    0.73610    1.000
    C153     C        0.06690    0.86470    0.78240    1.000
    H105     H        0.04180    0.86200    0.80000    1.000
    Zn7      Zn       0.10131    0.13200    0.17627    1.000
    Zn8      Zn       0.09171    0.13147    0.09736    1.000
    O25      O        0.64739    0.54910    0.10581    1.000
    O26      O        0.15652    0.20010    0.10734    1.000
    O27      O        0.03844    0.21472    0.10461    1.000
    O28      O        0.52976    0.56442    0.11128    1.000
    O29      O        0.66534    0.56730    0.16438    1.000
    O30      O        0.03423    0.19598    0.16362    1.000
    O31      O        0.54774    0.54537    0.16997    1.000
    O32      O        0.15247    0.21682    0.16629    1.000
    N22      N        0.60680    0.36946    0.72981    1.000
    N23      N        0.02419    0.11885    0.99320    1.000
    N24      N        0.07516    0.11947    0.04454    1.000
    N25      N        0.85271    0.17120    0.85194    1.000
    N26      N        0.80670    0.20150    0.83492    1.000
    N27      N        0.81398    0.23580    0.89240    1.000
    C154     C        0.43034    0.49090    0.11083    1.000
    H106     H        0.43700    0.52000    0.09140    1.000
    C155     C        0.72545    0.49120    0.13475    1.000
    C156     C        0.51933    0.53703    0.14039    1.000
    N28      N        0.63085    0.35880    0.78694    1.000
    C157     C        0.46863    0.48910    0.14023    1.000
    C158     C        0.73572    0.45130    0.10527    1.000
    H107     H        0.71070    0.45290    0.08520    1.000
    C159     C        0.67531    0.53943    0.13494    1.000
    C160     C        0.76276    0.48810    0.16476    1.000
    H108     H        0.75560    0.51460    0.18500    1.000
    C161     C        0.82169    0.40520    0.13449    1.000
    C162     C        0.17298    0.22760    0.13685    1.000
    C163     C        0.98118    0.13680    0.96638    1.000
    C164     C        0.01763    0.22500    0.13431    1.000
    C165     C        0.85584    0.19300    0.88631    1.000
    C166     C        0.06602    0.06920    0.99052    1.000
    H109     H        0.07200    0.04060    0.97080    1.000
    C167     C        0.81031    0.44630    0.16485    1.000
    H110     H        0.83500    0.44510    0.18500    1.000
    C168     C        0.09691    0.06990    0.02219    1.000
    H111     H        0.12800    0.04120    0.02790    1.000
    C169     C        0.65980    0.33770    0.81994    1.000
    C170     C        0.22298    0.27670    0.13703    1.000
    C171     C        0.96457    0.08560    0.94085    1.000
    H112     H        0.98040    0.03960    0.94140    1.000
    C172     C        0.90023    0.17100    0.91318    1.000
    C173     C        0.87290    0.36060    0.13470    1.000
    C174     C        0.92378    0.10440    0.91433    1.000
    H113     H        0.91240    0.07050    0.89700    1.000
    C175     C        0.78332    0.40850    0.10505    1.000
    H114     H        0.78950    0.38150    0.08480    1.000
    C176     C        0.38183    0.44940    0.11013    1.000
    H115     H        0.35630    0.45110    0.09040    1.000
    C177     C        0.96849    0.27390    0.13441    1.000
    C178     C        0.24860    0.29050    0.10607    1.000
    H116     H        0.23340    0.27160    0.08460    1.000
    C179     C        0.78479    0.24010    0.85992    1.000
    C180     C        0.37170    0.40530    0.13898    1.000
    C181     C        0.94532    0.30440    0.10292    1.000
    H117     H        0.96170    0.29570    0.08170    1.000
    C182     C        0.32012    0.36070    0.13852    1.000
    C183     C        0.03115    0.14720    0.02621    1.000
    H118     H        0.00790    0.18210    0.03510    1.000
    C184     C        0.65990    0.34210    0.88288    1.000
    H119     H        0.64390    0.35560    0.90360    1.000
    C185     C        0.94363    0.28850    0.16605    1.000
    H120     H        0.95920    0.26970    0.18740    1.000
    C186     C        0.89840    0.34750    0.10265    1.000
    H121     H        0.88360    0.36790    0.08140    1.000
    C187     C        0.64088    0.34120    0.75431    1.000
    H122     H        0.67010    0.31100    0.74910    1.000
    C188     C        0.70806    0.29870    0.82157    1.000
    H123     H        0.72380    0.28440    0.80080    1.000
    C189     C        0.73300    0.28110    0.85455    1.000
    C190     C        0.45918    0.44570    0.16917    1.000
    H124     H        0.48490    0.44460    0.18890    1.000
    C191     C        0.29640    0.33190    0.10650    1.000
    H125     H        0.31290    0.34070    0.08540    1.000
    C192     C        0.95760    0.20430    0.96614    1.000
    H126     H        0.96920    0.23830    0.98330    1.000
    C193     C        0.91640    0.22110    0.94000    1.000
    H127     H        0.89910    0.26610    0.94020    1.000
    C194     C        0.63630    0.35970    0.85104    1.000
    H128     H        0.60380    0.38710    0.84940    1.000
    C195     C        0.41127    0.40380    0.16874    1.000
    H129     H        0.40510    0.37450    0.18820    1.000
    C196     C        0.89667    0.33020    0.16598    1.000
    H130     H        0.88040    0.33830    0.18730    1.000
    C197     C        0.29370    0.34770    0.16964    1.000
    H131     H        0.30850    0.36700    0.19110    1.000
    C198     C        0.70670    0.30490    0.88420    1.000
    H132     H        0.72350    0.29360    0.90660    1.000
    C199     C        0.24580    0.30640    0.16913    1.000
    H133     H        0.22870    0.29830    0.19010    1.000
    C200     C        0.58840    0.43290    0.74770    1.000
    H134     H        0.56830    0.47080    0.73670    1.000
    C201     C        0.60450    0.42950    0.78290    1.000
    H135     H        0.59990    0.46420    0.80040    1.000
    C202     C        0.89060    0.12770    0.83187    1.000
    H136     H        0.87760    0.07860    0.83040    1.000
    H137     H        0.89190    0.14720    0.80830    1.000
    H138     H        0.92730    0.12880    0.84380    1.000
    C203     C        0.55610    0.37460    0.74740    1.000
    H139     H        0.52110    0.38340    0.73610    1.000
    C204     C        0.56690    0.36470    0.78240    1.000
    H140     H        0.54180    0.36200    0.80000    1.000
    Zn9      Zn       0.39869    0.36800    0.82373    1.000
    Zn10     Zn       0.40829    0.36853    0.90264    1.000
    O33      O        0.85261    0.95090    0.89419    1.000
    O34      O        0.34348    0.29990    0.89266    1.000
    O35      O        0.46156    0.28528    0.89539    1.000
    O36      O        0.97024    0.93558    0.88872    1.000
    O37      O        0.83466    0.93270    0.83562    1.000
    O38      O        0.46577    0.30402    0.83638    1.000
    O39      O        0.95226    0.95463    0.83003    1.000
    O40      O        0.34753    0.28318    0.83371    1.000
    N29      N        0.89320    0.13054    0.27019    1.000
    N30      N        0.47581    0.38115    0.00680    1.000
    N31      N        0.42484    0.38053    0.95546    1.000
    N32      N        0.64729    0.32880    0.14806    1.000
    N33      N        0.69330    0.29850    0.16508    1.000
    N34      N        0.68602    0.26420    0.10760    1.000
    C205     C        0.06966    0.00910    0.88917    1.000
    H141     H        0.06300    0.98000    0.90860    1.000
    C206     C        0.77455    0.00880    0.86525    1.000
    C207     C        0.98067    0.96297    0.85961    1.000
    N35      N        0.86915    0.14120    0.21306    1.000
    C208     C        0.03137    0.01090    0.85977    1.000
    C209     C        0.76428    0.04870    0.89473    1.000
    H142     H        0.78930    0.04710    0.91480    1.000
    C210     C        0.82469    0.96057    0.86506    1.000
    C211     C        0.73724    0.01190    0.83524    1.000
    H143     H        0.74440    0.98540    0.81500    1.000
    C212     C        0.67831    0.09480    0.86551    1.000
    C213     C        0.32702    0.27240    0.86315    1.000
    C214     C        0.51882    0.36320    0.03362    1.000
    C215     C        0.48237    0.27500    0.86569    1.000
    C216     C        0.64416    0.30700    0.11369    1.000
    C217     C        0.43398    0.43080    0.00948    1.000
    H144     H        0.42800    0.45940    0.02920    1.000
    C218     C        0.68969    0.05370    0.83515    1.000
    H145     H        0.66500    0.05490    0.81500    1.000
    C219     C        0.40309    0.43010    0.97781    1.000
    H146     H        0.37200    0.45880    0.97210    1.000
    C220     C        0.84020    0.16230    0.18006    1.000
    C221     C        0.27702    0.22330    0.86297    1.000
    C222     C        0.53543    0.41440    0.05915    1.000
    H147     H        0.51960    0.46040    0.05860    1.000
    C223     C        0.59977    0.32900    0.08682    1.000
    C224     C        0.62710    0.13940    0.86530    1.000
    C225     C        0.57622    0.39560    0.08567    1.000
    H148     H        0.58760    0.42950    0.10300    1.000
    C226     C        0.71668    0.09150    0.89495    1.000
    H149     H        0.71050    0.11850    0.91520    1.000
    C227     C        0.11817    0.05060    0.88987    1.000
    H150     H        0.14370    0.04890    0.90960    1.000
    C228     C        0.53151    0.22610    0.86559    1.000
    C229     C        0.25140    0.20950    0.89393    1.000
    H151     H        0.26660    0.22840    0.91540    1.000
    C230     C        0.71521    0.25990    0.14008    1.000
    C231     C        0.12830    0.09470    0.86102    1.000
    C232     C        0.55468    0.19560    0.89708    1.000
    H152     H        0.53830    0.20430    0.91830    1.000
    C233     C        0.17988    0.13930    0.86148    1.000
    C234     C        0.46885    0.35280    0.97379    1.000
    H153     H        0.49210    0.31790    0.96490    1.000
    C235     C        0.84010    0.15790    0.11712    1.000
    H154     H        0.85610    0.14440    0.09640    1.000
    C236     C        0.55637    0.21150    0.83395    1.000
    H155     H        0.54080    0.23030    0.81260    1.000
    C237     C        0.60160    0.15250    0.89735    1.000
    H156     H        0.61640    0.13210    0.91860    1.000
    C238     C        0.85912    0.15880    0.24569    1.000
    H157     H        0.82990    0.18900    0.25090    1.000
    C239     C        0.79194    0.20130    0.17843    1.000
    H158     H        0.77620    0.21560    0.19920    1.000
    C240     C        0.76700    0.21890    0.14545    1.000
    C241     C        0.04082    0.05430    0.83083    1.000
    H159     H        0.01510    0.05540    0.81110    1.000
    C242     C        0.20360    0.16810    0.89350    1.000
    H160     H        0.18710    0.15930    0.91460    1.000
    C243     C        0.54240    0.29570    0.03386    1.000
    H161     H        0.53080    0.26170    0.01670    1.000
    C244     C        0.58360    0.27890    0.06000    1.000
    H162     H        0.60090    0.23390    0.05980    1.000
    C245     C        0.86370    0.14030    0.14896    1.000
    H163     H        0.89620    0.11290    0.15060    1.000
    C246     C        0.08873    0.09620    0.83126    1.000
    H164     H        0.09490    0.12550    0.81180    1.000
    C247     C        0.60333    0.16980    0.83402    1.000
    H165     H        0.61960    0.16170    0.81270    1.000
    C248     C        0.20630    0.15230    0.83036    1.000
    H166     H        0.19150    0.13300    0.80890    1.000
    C249     C        0.79330    0.19510    0.11580    1.000
    H167     H        0.77650    0.20640    0.09340    1.000
    C250     C        0.25420    0.19360    0.83087    1.000
    H168     H        0.27130    0.20170    0.80990    1.000
    C251     C        0.91160    0.06710    0.25230    1.000
    H169     H        0.93170    0.02920    0.26330    1.000
    C252     C        0.89550    0.07050    0.21710    1.000
    H170     H        0.90010    0.03580    0.19960    1.000
    C253     C        0.60940    0.37230    0.16813    1.000
    H171     H        0.62240    0.42140    0.16960    1.000
    H172     H        0.60810    0.35280    0.19170    1.000
    H173     H        0.57270    0.37120    0.15620    1.000
    C254     C        0.94390    0.12540    0.25260    1.000
    H174     H        0.97890    0.11660    0.26390    1.000
    C255     C        0.93310    0.13530    0.21760    1.000
    H175     H        0.95820    0.13800    0.20000    1.000
    Zn11     Zn       0.89869    0.86800    0.82373    1.000
    Zn12     Zn       0.90829    0.86853    0.90264    1.000
    O41      O        0.35261    0.45090    0.89419    1.000
    O42      O        0.84348    0.79990    0.89266    1.000
    O43      O        0.96156    0.78528    0.89539    1.000
    O44      O        0.47024    0.43558    0.88872    1.000
    O45      O        0.33466    0.43270    0.83562    1.000
    O46      O        0.96577    0.80402    0.83638    1.000
    O47      O        0.45226    0.45463    0.83003    1.000
    O48      O        0.84753    0.78318    0.83371    1.000
    N36      N        0.39320    0.63054    0.27019    1.000
    N37      N        0.97581    0.88115    0.00680    1.000
    N38      N        0.92484    0.88053    0.95546    1.000
    N39      N        0.14729    0.82880    0.14806    1.000
    N40      N        0.19330    0.79850    0.16508    1.000
    N41      N        0.18602    0.76420    0.10760    1.000
    C256     C        0.56966    0.50910    0.88917    1.000
    H176     H        0.56300    0.48000    0.90860    1.000
    C257     C        0.27455    0.50880    0.86525    1.000
    C258     C        0.48067    0.46297    0.85961    1.000
    N42      N        0.36915    0.64120    0.21306    1.000
    C259     C        0.53137    0.51090    0.85977    1.000
    C260     C        0.26428    0.54870    0.89473    1.000
    H177     H        0.28930    0.54710    0.91480    1.000
    C261     C        0.32469    0.46057    0.86506    1.000
    C262     C        0.23724    0.51190    0.83524    1.000
    H178     H        0.24440    0.48540    0.81500    1.000
    C263     C        0.17831    0.59480    0.86551    1.000
    C264     C        0.82702    0.77240    0.86315    1.000
    C265     C        0.01882    0.86320    0.03362    1.000
    C266     C        0.98237    0.77500    0.86569    1.000
    C267     C        0.14416    0.80700    0.11369    1.000
    C268     C        0.93398    0.93080    0.00948    1.000
    H179     H        0.92800    0.95940    0.02920    1.000
    C269     C        0.18969    0.55370    0.83515    1.000
    H180     H        0.16500    0.55490    0.81500    1.000
    C270     C        0.90309    0.93010    0.97781    1.000
    H181     H        0.87200    0.95880    0.97210    1.000
    C271     C        0.34020    0.66230    0.18006    1.000
    C272     C        0.77702    0.72330    0.86297    1.000
    C273     C        0.03543    0.91440    0.05915    1.000
    H182     H        0.01960    0.96040    0.05860    1.000
    C274     C        0.09977    0.82900    0.08682    1.000
    C275     C        0.12710    0.63940    0.86530    1.000
    C276     C        0.07622    0.89560    0.08567    1.000
    H183     H        0.08760    0.92950    0.10300    1.000
    C277     C        0.21668    0.59150    0.89495    1.000
    H184     H        0.21050    0.61850    0.91520    1.000
    C278     C        0.61817    0.55060    0.88987    1.000
    H185     H        0.64370    0.54890    0.90960    1.000
    C279     C        0.03151    0.72610    0.86559    1.000
    C280     C        0.75140    0.70950    0.89393    1.000
    H186     H        0.76660    0.72840    0.91540    1.000
    C281     C        0.21521    0.75990    0.14008    1.000
    C282     C        0.62830    0.59470    0.86102    1.000
    C283     C        0.05468    0.69560    0.89708    1.000
    H187     H        0.03830    0.70430    0.91830    1.000
    C284     C        0.67988    0.63930    0.86148    1.000
    C285     C        0.96885    0.85280    0.97379    1.000
    H188     H        0.99210    0.81790    0.96490    1.000
    C286     C        0.34010    0.65790    0.11712    1.000
    H189     H        0.35610    0.64440    0.09640    1.000
    C287     C        0.05637    0.71150    0.83395    1.000
    H190     H        0.04080    0.73030    0.81260    1.000
    C288     C        0.10160    0.65250    0.89735    1.000
    H191     H        0.11640    0.63210    0.91860    1.000
    C289     C        0.35912    0.65880    0.24569    1.000
    H192     H        0.32990    0.68900    0.25090    1.000
    C290     C        0.29194    0.70130    0.17843    1.000
    H193     H        0.27620    0.71560    0.19920    1.000
    C291     C        0.26700    0.71890    0.14545    1.000
    C292     C        0.54082    0.55430    0.83083    1.000
    H194     H        0.51510    0.55540    0.81110    1.000
    C293     C        0.70360    0.66810    0.89350    1.000
    H195     H        0.68710    0.65930    0.91460    1.000
    C294     C        0.04240    0.79570    0.03386    1.000
    H196     H        0.03080    0.76170    0.01670    1.000
    C295     C        0.08360    0.77890    0.06000    1.000
    H197     H        0.10090    0.73390    0.05980    1.000
    C296     C        0.36370    0.64030    0.14896    1.000
    H198     H        0.39620    0.61290    0.15060    1.000
    C297     C        0.58873    0.59620    0.83126    1.000
    H199     H        0.59490    0.62550    0.81180    1.000
    C298     C        0.10333    0.66980    0.83402    1.000
    H200     H        0.11960    0.66170    0.81270    1.000
    C299     C        0.70630    0.65230    0.83036    1.000
    H201     H        0.69150    0.63300    0.80890    1.000
    C300     C        0.29330    0.69510    0.11580    1.000
    H202     H        0.27650    0.70640    0.09340    1.000
    C301     C        0.75420    0.69360    0.83087    1.000
    H203     H        0.77130    0.70170    0.80990    1.000
    C302     C        0.41160    0.56710    0.25230    1.000
    H204     H        0.43170    0.52920    0.26330    1.000
    C303     C        0.39550    0.57050    0.21710    1.000
    H205     H        0.40010    0.53580    0.19960    1.000
    C304     C        0.10940    0.87230    0.16813    1.000
    H206     H        0.12240    0.92140    0.16960    1.000
    H207     H        0.10810    0.85280    0.19170    1.000
    H208     H        0.07270    0.87120    0.15620    1.000
    C305     C        0.44390    0.62540    0.25260    1.000
    H209     H        0.47890    0.61660    0.26390    1.000
    C306     C        0.43310    0.63530    0.21760    1.000
    H210     H        0.45820    0.63800    0.20000    1.000
    Zn13     Zn       0.39869    0.63200    0.32373    1.000
    Zn14     Zn       0.40829    0.63147    0.40264    1.000
    O49      O        0.85261    0.04910    0.39419    1.000
    O50      O        0.34348    0.70010    0.39266    1.000
    O51      O        0.46156    0.71472    0.39539    1.000
    O52      O        0.97024    0.06442    0.38872    1.000
    O53      O        0.83466    0.06730    0.33562    1.000
    O54      O        0.46577    0.69598    0.33638    1.000
    O55      O        0.95226    0.04537    0.33003    1.000
    O56      O        0.34753    0.71682    0.33371    1.000
    N43      N        0.89320    0.86946    0.77019    1.000
    N44      N        0.47581    0.61885    0.50680    1.000
    N45      N        0.42484    0.61947    0.45546    1.000
    N46      N        0.64729    0.67120    0.64806    1.000
    N47      N        0.69330    0.70150    0.66508    1.000
    N48      N        0.68602    0.73580    0.60760    1.000
    C307     C        0.06966    0.99090    0.38917    1.000
    H211     H        0.06300    0.02000    0.40860    1.000
    C308     C        0.77455    0.99120    0.36525    1.000
    C309     C        0.98067    0.03703    0.35961    1.000
    N49      N        0.86915    0.85880    0.71306    1.000
    C310     C        0.03137    0.98910    0.35977    1.000
    C311     C        0.76428    0.95130    0.39473    1.000
    H212     H        0.78930    0.95290    0.41480    1.000
    C312     C        0.82469    0.03943    0.36506    1.000
    C313     C        0.73724    0.98810    0.33524    1.000
    H213     H        0.74440    0.01460    0.31500    1.000
    C314     C        0.67831    0.90520    0.36551    1.000
    C315     C        0.32702    0.72760    0.36315    1.000
    C316     C        0.51882    0.63680    0.53362    1.000
    C317     C        0.48237    0.72500    0.36569    1.000
    C318     C        0.64416    0.69300    0.61369    1.000
    C319     C        0.43398    0.56920    0.50948    1.000
    H214     H        0.42800    0.54060    0.52920    1.000
    C320     C        0.68969    0.94630    0.33515    1.000
    H215     H        0.66500    0.94510    0.31500    1.000
    C321     C        0.40309    0.56990    0.47781    1.000
    H216     H        0.37200    0.54120    0.47210    1.000
    C322     C        0.84020    0.83770    0.68006    1.000
    C323     C        0.27702    0.77670    0.36297    1.000
    C324     C        0.53543    0.58560    0.55915    1.000
    H217     H        0.51960    0.53960    0.55860    1.000
    C325     C        0.59977    0.67100    0.58682    1.000
    C326     C        0.62710    0.86060    0.36530    1.000
    C327     C        0.57622    0.60440    0.58567    1.000
    H218     H        0.58760    0.57050    0.60300    1.000
    C328     C        0.71668    0.90850    0.39495    1.000
    H219     H        0.71050    0.88150    0.41520    1.000
    C329     C        0.11817    0.94940    0.38987    1.000
    H220     H        0.14370    0.95110    0.40960    1.000
    C330     C        0.53151    0.77390    0.36559    1.000
    C331     C        0.25140    0.79050    0.39393    1.000
    H221     H        0.26660    0.77160    0.41540    1.000
    C332     C        0.71521    0.74010    0.64008    1.000
    C333     C        0.12830    0.90530    0.36102    1.000
    C334     C        0.55468    0.80440    0.39708    1.000
    H222     H        0.53830    0.79570    0.41830    1.000
    C335     C        0.17988    0.86070    0.36148    1.000
    C336     C        0.46885    0.64720    0.47379    1.000
    H223     H        0.49210    0.68210    0.46490    1.000
    C337     C        0.84010    0.84210    0.61712    1.000
    H224     H        0.85610    0.85560    0.59640    1.000
    C338     C        0.55637    0.78850    0.33395    1.000
    H225     H        0.54080    0.76970    0.31260    1.000
    C339     C        0.60160    0.84750    0.39735    1.000
    H226     H        0.61640    0.86790    0.41860    1.000
    C340     C        0.85912    0.84120    0.74569    1.000
    H227     H        0.82990    0.81100    0.75090    1.000
    C341     C        0.79194    0.79870    0.67843    1.000
    H228     H        0.77620    0.78440    0.69920    1.000
    C342     C        0.76700    0.78110    0.64545    1.000
    C343     C        0.04082    0.94570    0.33083    1.000
    H229     H        0.01510    0.94460    0.31110    1.000
    C344     C        0.20360    0.83190    0.39350    1.000
    H230     H        0.18710    0.84070    0.41460    1.000
    C345     C        0.54240    0.70430    0.53386    1.000
    H231     H        0.53080    0.73830    0.51670    1.000
    C346     C        0.58360    0.72110    0.56000    1.000
    H232     H        0.60090    0.76610    0.55980    1.000
    C347     C        0.86370    0.85970    0.64896    1.000
    H233     H        0.89620    0.88710    0.65060    1.000
    C348     C        0.08873    0.90380    0.33126    1.000
    H234     H        0.09490    0.87450    0.31180    1.000
    C349     C        0.60333    0.83020    0.33402    1.000
    H235     H        0.61960    0.83830    0.31270    1.000
    C350     C        0.20630    0.84770    0.33036    1.000
    H236     H        0.19150    0.86700    0.30890    1.000
    C351     C        0.79330    0.80490    0.61580    1.000
    H237     H        0.77650    0.79360    0.59340    1.000
    C352     C        0.25420    0.80640    0.33087    1.000
    H238     H        0.27130    0.79830    0.30990    1.000
    C353     C        0.91160    0.93290    0.75230    1.000
    H239     H        0.93170    0.97080    0.76330    1.000
    C354     C        0.89550    0.92950    0.71710    1.000
    H240     H        0.90010    0.96420    0.69960    1.000
    C355     C        0.60940    0.62770    0.66813    1.000
    H241     H        0.62240    0.57860    0.66960    1.000
    H242     H        0.60810    0.64720    0.69170    1.000
    H243     H        0.57270    0.62880    0.65620    1.000
    C356     C        0.94390    0.87460    0.75260    1.000
    H244     H        0.97890    0.88340    0.76390    1.000
    C357     C        0.93310    0.86470    0.71760    1.000
    H245     H        0.95820    0.86200    0.70000    1.000
    Zn15     Zn       0.89869    0.13200    0.32373    1.000
    Zn16     Zn       0.90829    0.13147    0.40264    1.000
    O57      O        0.35261    0.54910    0.39419    1.000
    O58      O        0.84348    0.20010    0.39266    1.000
    O59      O        0.96156    0.21472    0.39539    1.000
    O60      O        0.47024    0.56442    0.38872    1.000
    O61      O        0.33466    0.56730    0.33562    1.000
    O62      O        0.96577    0.19598    0.33638    1.000
    O63      O        0.45226    0.54537    0.33003    1.000
    O64      O        0.84753    0.21682    0.33371    1.000
    N50      N        0.39320    0.36946    0.77019    1.000
    N51      N        0.97581    0.11885    0.50680    1.000
    N52      N        0.92484    0.11947    0.45546    1.000
    N53      N        0.14729    0.17120    0.64806    1.000
    N54      N        0.19330    0.20150    0.66508    1.000
    N55      N        0.18602    0.23580    0.60760    1.000
    C358     C        0.56966    0.49090    0.38917    1.000
    H246     H        0.56300    0.52000    0.40860    1.000
    C359     C        0.27455    0.49120    0.36525    1.000
    C360     C        0.48067    0.53703    0.35961    1.000
    N56      N        0.36915    0.35880    0.71306    1.000
    C361     C        0.53137    0.48910    0.35977    1.000
    C362     C        0.26428    0.45130    0.39473    1.000
    H247     H        0.28930    0.45290    0.41480    1.000
    C363     C        0.32469    0.53943    0.36506    1.000
    C364     C        0.23724    0.48810    0.33524    1.000
    H248     H        0.24440    0.51460    0.31500    1.000
    C365     C        0.17831    0.40520    0.36551    1.000
    C366     C        0.82702    0.22760    0.36315    1.000
    C367     C        0.01882    0.13680    0.53362    1.000
    C368     C        0.98237    0.22500    0.36569    1.000
    C369     C        0.14416    0.19300    0.61369    1.000
    C370     C        0.93398    0.06920    0.50948    1.000
    H249     H        0.92800    0.04060    0.52920    1.000
    C371     C        0.18969    0.44630    0.33515    1.000
    H250     H        0.16500    0.44510    0.31500    1.000
    C372     C        0.90309    0.06990    0.47781    1.000
    H251     H        0.87200    0.04120    0.47210    1.000
    C373     C        0.34020    0.33770    0.68006    1.000
    C374     C        0.77702    0.27670    0.36297    1.000
    C375     C        0.03543    0.08560    0.55915    1.000
    H252     H        0.01960    0.03960    0.55860    1.000
    C376     C        0.09977    0.17100    0.58682    1.000
    C377     C        0.12710    0.36060    0.36530    1.000
    C378     C        0.07622    0.10440    0.58567    1.000
    H253     H        0.08760    0.07050    0.60300    1.000
    C379     C        0.21668    0.40850    0.39495    1.000
    H254     H        0.21050    0.38150    0.41520    1.000
    C380     C        0.61817    0.44940    0.38987    1.000
    H255     H        0.64370    0.45110    0.40960    1.000
    C381     C        0.03151    0.27390    0.36559    1.000
    C382     C        0.75140    0.29050    0.39393    1.000
    H256     H        0.76660    0.27160    0.41540    1.000
    C383     C        0.21521    0.24010    0.64008    1.000
    C384     C        0.62830    0.40530    0.36102    1.000
    C385     C        0.05468    0.30440    0.39708    1.000
    H257     H        0.03830    0.29570    0.41830    1.000
    C386     C        0.67988    0.36070    0.36148    1.000
    C387     C        0.96885    0.14720    0.47379    1.000
    H258     H        0.99210    0.18210    0.46490    1.000
    C388     C        0.34010    0.34210    0.61712    1.000
    H259     H        0.35610    0.35560    0.59640    1.000
    C389     C        0.05637    0.28850    0.33395    1.000
    H260     H        0.04080    0.26970    0.31260    1.000
    C390     C        0.10160    0.34750    0.39735    1.000
    H261     H        0.11640    0.36790    0.41860    1.000
    C391     C        0.35912    0.34120    0.74569    1.000
    H262     H        0.32990    0.31100    0.75090    1.000
    C392     C        0.29194    0.29870    0.67843    1.000
    H263     H        0.27620    0.28440    0.69920    1.000
    C393     C        0.26700    0.28110    0.64545    1.000
    C394     C        0.54082    0.44570    0.33083    1.000
    H264     H        0.51510    0.44460    0.31110    1.000
    C395     C        0.70360    0.33190    0.39350    1.000
    H265     H        0.68710    0.34070    0.41460    1.000
    C396     C        0.04240    0.20430    0.53386    1.000
    H266     H        0.03080    0.23830    0.51670    1.000
    C397     C        0.08360    0.22110    0.56000    1.000
    H267     H        0.10090    0.26610    0.55980    1.000
    C398     C        0.36370    0.35970    0.64896    1.000
    H268     H        0.39620    0.38710    0.65060    1.000
    C399     C        0.58873    0.40380    0.33126    1.000
    H269     H        0.59490    0.37450    0.31180    1.000
    C400     C        0.10333    0.33020    0.33402    1.000
    H270     H        0.11960    0.33830    0.31270    1.000
    C401     C        0.70630    0.34770    0.33036    1.000
    H271     H        0.69150    0.36700    0.30890    1.000
    C402     C        0.29330    0.30490    0.61580    1.000
    H272     H        0.27650    0.29360    0.59340    1.000
    C403     C        0.75420    0.30640    0.33087    1.000
    H273     H        0.77130    0.29830    0.30990    1.000
    C404     C        0.41160    0.43290    0.75230    1.000
    H274     H        0.43170    0.47080    0.76330    1.000
    C405     C        0.39550    0.42950    0.71710    1.000
    H275     H        0.40010    0.46420    0.69960    1.000
    C406     C        0.10940    0.12770    0.66813    1.000
    H276     H        0.12240    0.07860    0.66960    1.000
    H277     H        0.10810    0.14720    0.69170    1.000
    H278     H        0.07270    0.12880    0.65620    1.000
    C407     C        0.44390    0.37460    0.75260    1.000
    H279     H        0.47890    0.38340    0.76390    1.000
    C408     C        0.43310    0.36470    0.71760    1.000
    H280     H        0.45820    0.36200    0.70000    1.000
