# CIF file generated by openbabel 3.1.0, see https://openbabel.org
data_I
_chemical_name_common 'OKIVAG01_charged'
_cell_length_a 15.8926
_cell_length_b 15.8926
_cell_length_c 21.972
_cell_angle_alpha 90
_cell_angle_beta 90
_cell_angle_gamma 90
_space_group_name_H-M_alt 'P 1'
_space_group_name_Hall 'P 1'
loop_
    _symmetry_equiv_pos_as_xyz
    x,y,z
loop_
    _atom_site_label
    _atom_site_type_symbol
    _atom_site_fract_x
    _atom_site_fract_y
    _atom_site_fract_z
    _atom_site_occupancy
    Cd1      Cd       0.94370    0.05630    0.25000    1.000
    Cd2      Cd       0.05630    0.94370    0.75000    1.000
    Cd3      Cd       0.44370    0.44370    0.50000    1.000
    Cd4      Cd       0.55630    0.55630    0.00000    1.000
    H1       H        0.46440    0.39050    0.35100    1.000
    H2       H        0.41810    0.28490    0.28730    1.000
    H3       H        0.21780    0.25720    0.39700    1.000
    H4       H        0.27520    0.35610    0.46110    1.000
    H5       H        0.34890    0.20450    0.22190    1.000
    H6       H        0.29590    0.09350    0.16580    1.000
    H7       H        0.19880    0.00020    0.20840    1.000
    H8       H        0.20550    0.13320    0.36520    1.000
    H9       H        0.95630    0.88050    0.45790    1.000
    H10      H        0.93970    0.77040    0.52830    1.000
    H11      H        0.03800    0.66620    0.53700    1.000
    H12      H        0.17650    0.77660    0.40380    1.000
    H13      H        0.23300    0.65130    0.39110    1.000
    H14      H        0.33900    0.55480    0.40430    1.000
    H15      H        0.26610    0.51230    0.57180    1.000
    H16      H        0.15730    0.60780    0.56180    1.000
    H17      H        0.26060    0.97470    0.38910    1.000
    H18      H        0.25940    0.89330    0.35600    1.000
    H19      H        0.53560    0.60950    0.85100    1.000
    H20      H        0.58190    0.71510    0.78730    1.000
    H21      H        0.78220    0.74280    0.89700    1.000
    H22      H        0.72480    0.64390    0.96110    1.000
    H23      H        0.65110    0.79550    0.72190    1.000
    H24      H        0.70410    0.90650    0.66580    1.000
    H25      H        0.80120    0.99980    0.70840    1.000
    H26      H        0.79450    0.86680    0.86520    1.000
    H27      H        0.04370    0.11950    0.95790    1.000
    H28      H        0.06030    0.22960    0.02830    1.000
    H29      H        0.96200    0.33380    0.03700    1.000
    H30      H        0.82350    0.22340    0.90380    1.000
    H31      H        0.76700    0.34870    0.89110    1.000
    H32      H        0.66100    0.44520    0.90430    1.000
    H33      H        0.73390    0.48770    0.07180    1.000
    H34      H        0.84270    0.39220    0.06180    1.000
    H35      H        0.73940    0.02530    0.88910    1.000
    H36      H        0.74060    0.10670    0.85600    1.000
    H37      H        0.10950    0.96440    0.60100    1.000
    H38      H        0.21510    0.91810    0.53730    1.000
    H39      H        0.24280    0.71780    0.64700    1.000
    H40      H        0.14390    0.77520    0.71110    1.000
    H41      H        0.29550    0.84890    0.47190    1.000
    H42      H        0.40650    0.79590    0.41580    1.000
    H43      H        0.49980    0.69880    0.45840    1.000
    H44      H        0.36680    0.70550    0.61520    1.000
    H45      H        0.61950    0.45630    0.70790    1.000
    H46      H        0.72960    0.43970    0.77830    1.000
    H47      H        0.83380    0.53800    0.78700    1.000
    H48      H        0.72340    0.67650    0.65380    1.000
    H49      H        0.84870    0.73300    0.64110    1.000
    H50      H        0.94520    0.83900    0.65430    1.000
    H51      H        0.98770    0.76610    0.82180    1.000
    H52      H        0.89220    0.65730    0.81180    1.000
    H53      H        0.52530    0.76060    0.63910    1.000
    H54      H        0.60670    0.75940    0.60600    1.000
    H55      H        0.89050    0.03560    0.10100    1.000
    H56      H        0.78490    0.08190    0.03730    1.000
    H57      H        0.75720    0.28220    0.14700    1.000
    H58      H        0.85610    0.22480    0.21110    1.000
    H59      H        0.70450    0.15110    0.97190    1.000
    H60      H        0.59350    0.20410    0.91580    1.000
    H61      H        0.50020    0.30120    0.95840    1.000
    H62      H        0.63320    0.29450    0.11520    1.000
    H63      H        0.38050    0.54370    0.20790    1.000
    H64      H        0.27040    0.56030    0.27830    1.000
    H65      H        0.16620    0.46200    0.28700    1.000
    H66      H        0.27660    0.32350    0.15380    1.000
    H67      H        0.15130    0.26700    0.14110    1.000
    H68      H        0.05480    0.16100    0.15430    1.000
    H69      H        0.01230    0.23390    0.32180    1.000
    H70      H        0.10780    0.34270    0.31180    1.000
    H71      H        0.47470    0.23940    0.13910    1.000
    H72      H        0.39330    0.24060    0.10600    1.000
    H73      H        0.03560    0.89050    0.89900    1.000
    H74      H        0.08190    0.78490    0.96270    1.000
    H75      H        0.28220    0.75720    0.85300    1.000
    H76      H        0.22480    0.85610    0.78890    1.000
    H77      H        0.15110    0.70450    0.02810    1.000
    H78      H        0.20410    0.59350    0.08420    1.000
    H79      H        0.30120    0.50020    0.04160    1.000
    H80      H        0.29450    0.63320    0.88480    1.000
    H81      H        0.54370    0.38050    0.79210    1.000
    H82      H        0.56030    0.27040    0.72170    1.000
    H83      H        0.46200    0.16620    0.71300    1.000
    H84      H        0.32350    0.27660    0.84620    1.000
    H85      H        0.26700    0.15130    0.85890    1.000
    H86      H        0.16100    0.05480    0.84570    1.000
    H87      H        0.23390    0.01230    0.67820    1.000
    H88      H        0.34270    0.10780    0.68820    1.000
    H89      H        0.23940    0.47470    0.86090    1.000
    H90      H        0.24060    0.39330    0.89400    1.000
    H91      H        0.96440    0.10950    0.39900    1.000
    H92      H        0.91810    0.21510    0.46270    1.000
    H93      H        0.71780    0.24280    0.35300    1.000
    H94      H        0.77520    0.14390    0.28890    1.000
    H95      H        0.84890    0.29550    0.52810    1.000
    H96      H        0.79590    0.40650    0.58420    1.000
    H97      H        0.69880    0.49980    0.54160    1.000
    H98      H        0.70550    0.36680    0.38480    1.000
    H99      H        0.45630    0.61950    0.29210    1.000
    H100     H        0.43970    0.72960    0.22170    1.000
    H101     H        0.53800    0.83380    0.21300    1.000
    H102     H        0.67650    0.72340    0.34620    1.000
    H103     H        0.73300    0.84870    0.35890    1.000
    H104     H        0.83900    0.94520    0.34570    1.000
    H105     H        0.76610    0.98770    0.17820    1.000
    H106     H        0.65730    0.89220    0.18820    1.000
    H107     H        0.76060    0.52530    0.36090    1.000
    H108     H        0.75940    0.60670    0.39400    1.000
    H109     H        0.39050    0.46440    0.64900    1.000
    H110     H        0.28490    0.41810    0.71270    1.000
    H111     H        0.25720    0.21780    0.60300    1.000
    H112     H        0.35610    0.27520    0.53890    1.000
    H113     H        0.20450    0.34890    0.77810    1.000
    H114     H        0.09350    0.29590    0.83420    1.000
    H115     H        0.00020    0.19880    0.79160    1.000
    H116     H        0.13320    0.20550    0.63480    1.000
    H117     H        0.88050    0.95630    0.54210    1.000
    H118     H        0.77040    0.93970    0.47170    1.000
    H119     H        0.66620    0.03800    0.46300    1.000
    H120     H        0.77660    0.17650    0.59620    1.000
    H121     H        0.65130    0.23300    0.60890    1.000
    H122     H        0.55480    0.33900    0.59570    1.000
    H123     H        0.51230    0.26610    0.42820    1.000
    H124     H        0.60780    0.15730    0.43820    1.000
    H125     H        0.97470    0.26060    0.61090    1.000
    H126     H        0.89330    0.25940    0.64400    1.000
    H127     H        0.60950    0.53560    0.14900    1.000
    H128     H        0.71510    0.58190    0.21270    1.000
    H129     H        0.74280    0.78220    0.10300    1.000
    H130     H        0.64390    0.72480    0.03890    1.000
    H131     H        0.79550    0.65110    0.27810    1.000
    H132     H        0.90650    0.70410    0.33420    1.000
    H133     H        0.99980    0.80120    0.29160    1.000
    H134     H        0.86680    0.79450    0.13480    1.000
    H135     H        0.11950    0.04370    0.04210    1.000
    H136     H        0.22960    0.06030    0.97170    1.000
    H137     H        0.33380    0.96200    0.96300    1.000
    H138     H        0.22340    0.82350    0.09620    1.000
    H139     H        0.34870    0.76700    0.10890    1.000
    H140     H        0.44520    0.66100    0.09570    1.000
    H141     H        0.48770    0.73390    0.92820    1.000
    H142     H        0.39220    0.84270    0.93820    1.000
    H143     H        0.02530    0.73940    0.11090    1.000
    H144     H        0.10670    0.74060    0.14400    1.000
    C1       C        0.41540    0.36010    0.36220    1.000
    C2       C        0.38730    0.29740    0.32320    1.000
    C3       C        0.31350    0.25250    0.33650    1.000
    C4       C        0.27130    0.28040    0.38760    1.000
    C5       C        0.30500    0.34100    0.42520    1.000
    C6       C        0.28320    0.18130    0.29930    1.000
    C7       C        0.30890    0.16760    0.23990    1.000
    C8       C        0.27750    0.10150    0.20650    1.000
    C9       C        0.21940    0.04650    0.23140    1.000
    C10      C        0.19150    0.06020    0.29140    1.000
    C11      C        0.22360    0.12530    0.32440    1.000
    C12      C        0.12840    0.00410    0.32050    1.000
    C13      C        0.07740    0.90870    0.38120    1.000
    C14      C        0.06860    0.84020    0.42530    1.000
    C15      C        0.99790    0.83790    0.46120    1.000
    C16      C        0.98820    0.77170    0.50300    1.000
    C17      C        0.04590    0.71000    0.50810    1.000
    C18      C        0.11860    0.71000    0.47040    1.000
    C19      C        0.12850    0.77540    0.42950    1.000
    C20      C        0.18350    0.64290    0.47670    1.000
    C21      C        0.23910    0.62410    0.42930    1.000
    C22      C        0.30250    0.56650    0.43750    1.000
    C23      C        0.26020    0.54180    0.53440    1.000
    C24      C        0.19470    0.59920    0.52870    1.000
    C25      C        0.58460    0.63990    0.86220    1.000
    C26      C        0.61270    0.70260    0.82320    1.000
    C27      C        0.68650    0.74750    0.83650    1.000
    C28      C        0.72870    0.71960    0.88760    1.000
    C29      C        0.69500    0.65900    0.92520    1.000
    C30      C        0.71680    0.81870    0.79930    1.000
    C31      C        0.69110    0.83240    0.73990    1.000
    C32      C        0.72250    0.89850    0.70650    1.000
    C33      C        0.78060    0.95350    0.73140    1.000
    C34      C        0.80850    0.93980    0.79140    1.000
    C35      C        0.77640    0.87470    0.82440    1.000
    C36      C        0.87160    0.99590    0.82050    1.000
    C37      C        0.92260    0.09130    0.88120    1.000
    C38      C        0.93140    0.15980    0.92530    1.000
    C39      C        0.00210    0.16210    0.96120    1.000
    C40      C        0.01180    0.22830    0.00300    1.000
    C41      C        0.95410    0.29000    0.00810    1.000
    C42      C        0.88140    0.29000    0.97040    1.000
    C43      C        0.87150    0.22460    0.92950    1.000
    C44      C        0.81650    0.35710    0.97670    1.000
    C45      C        0.76090    0.37590    0.92930    1.000
    C46      C        0.69750    0.43350    0.93750    1.000
    C47      C        0.73980    0.45820    0.03440    1.000
    C48      C        0.80530    0.40080    0.02870    1.000
    C49      C        0.13990    0.91540    0.61220    1.000
    C50      C        0.20260    0.88730    0.57320    1.000
    C51      C        0.24750    0.81350    0.58650    1.000
    C52      C        0.21960    0.77130    0.63760    1.000
    C53      C        0.15900    0.80500    0.67520    1.000
    C54      C        0.31870    0.78320    0.54930    1.000
    C55      C        0.33240    0.80890    0.48990    1.000
    C56      C        0.39850    0.77750    0.45650    1.000
    C57      C        0.45350    0.71940    0.48140    1.000
    C58      C        0.43980    0.69150    0.54140    1.000
    C59      C        0.37470    0.72360    0.57440    1.000
    C60      C        0.49590    0.62840    0.57050    1.000
    C61      C        0.59130    0.57740    0.63120    1.000
    C62      C        0.65980    0.56860    0.67530    1.000
    C63      C        0.66210    0.49790    0.71120    1.000
    C64      C        0.72830    0.48820    0.75300    1.000
    C65      C        0.79000    0.54590    0.75810    1.000
    C66      C        0.79000    0.61860    0.72040    1.000
    C67      C        0.72460    0.62850    0.67950    1.000
    C68      C        0.85710    0.68350    0.72670    1.000
    C69      C        0.87590    0.73910    0.67930    1.000
    C70      C        0.93350    0.80250    0.68750    1.000
    C71      C        0.95820    0.76020    0.78440    1.000
    C72      C        0.90080    0.69470    0.77870    1.000
    C73      C        0.86010    0.08460    0.11220    1.000
    C74      C        0.79740    0.11270    0.07320    1.000
    C75      C        0.75250    0.18650    0.08650    1.000
    C76      C        0.78040    0.22870    0.13760    1.000
    C77      C        0.84100    0.19500    0.17520    1.000
    C78      C        0.68130    0.21680    0.04930    1.000
    C79      C        0.66760    0.19110    0.98990    1.000
    C80      C        0.60150    0.22250    0.95650    1.000
    C81      C        0.54650    0.28060    0.98140    1.000
    C82      C        0.56020    0.30850    0.04140    1.000
    C83      C        0.62530    0.27640    0.07440    1.000
    C84      C        0.50410    0.37160    0.07050    1.000
    C85      C        0.40870    0.42260    0.13120    1.000
    C86      C        0.34020    0.43140    0.17530    1.000
    C87      C        0.33790    0.50210    0.21120    1.000
    C88      C        0.27170    0.51180    0.25300    1.000
    C89      C        0.21000    0.45410    0.25810    1.000
    C90      C        0.21000    0.38140    0.22040    1.000
    C91      C        0.27540    0.37150    0.17950    1.000
    C92      C        0.14290    0.31650    0.22670    1.000
    C93      C        0.12410    0.26090    0.17930    1.000
    C94      C        0.06650    0.19750    0.18750    1.000
    C95      C        0.04180    0.23980    0.28440    1.000
    C96      C        0.09920    0.30530    0.27870    1.000
    C97      C        0.08460    0.86010    0.88780    1.000
    C98      C        0.11270    0.79740    0.92680    1.000
    C99      C        0.18650    0.75250    0.91350    1.000
    C100     C        0.22870    0.78040    0.86240    1.000
    C101     C        0.19500    0.84100    0.82480    1.000
    C102     C        0.21680    0.68130    0.95070    1.000
    C103     C        0.19110    0.66760    0.01010    1.000
    C104     C        0.22250    0.60150    0.04350    1.000
    C105     C        0.28060    0.54650    0.01860    1.000
    C106     C        0.30850    0.56020    0.95860    1.000
    C107     C        0.27640    0.62530    0.92560    1.000
    C108     C        0.37160    0.50410    0.92950    1.000
    C109     C        0.42260    0.40870    0.86880    1.000
    C110     C        0.43140    0.34020    0.82470    1.000
    C111     C        0.50210    0.33790    0.78880    1.000
    C112     C        0.51180    0.27170    0.74700    1.000
    C113     C        0.45410    0.21000    0.74190    1.000
    C114     C        0.38140    0.21000    0.77960    1.000
    C115     C        0.37150    0.27540    0.82050    1.000
    C116     C        0.31650    0.14290    0.77330    1.000
    C117     C        0.26090    0.12410    0.82070    1.000
    C118     C        0.19750    0.06650    0.81250    1.000
    C119     C        0.23980    0.04180    0.71560    1.000
    C120     C        0.30530    0.09920    0.72130    1.000
    C121     C        0.91540    0.13990    0.38780    1.000
    C122     C        0.88730    0.20260    0.42680    1.000
    C123     C        0.81350    0.24750    0.41350    1.000
    C124     C        0.77130    0.21960    0.36240    1.000
    C125     C        0.80500    0.15900    0.32480    1.000
    C126     C        0.78320    0.31870    0.45070    1.000
    C127     C        0.80890    0.33240    0.51010    1.000
    C128     C        0.77750    0.39850    0.54350    1.000
    C129     C        0.71940    0.45350    0.51860    1.000
    C130     C        0.69150    0.43980    0.45860    1.000
    C131     C        0.72360    0.37470    0.42560    1.000
    C132     C        0.62840    0.49590    0.42950    1.000
    C133     C        0.57740    0.59130    0.36880    1.000
    C134     C        0.56860    0.65980    0.32470    1.000
    C135     C        0.49790    0.66210    0.28880    1.000
    C136     C        0.48820    0.72830    0.24700    1.000
    C137     C        0.54590    0.79000    0.24190    1.000
    C138     C        0.61860    0.79000    0.27960    1.000
    C139     C        0.62850    0.72460    0.32050    1.000
    C140     C        0.68350    0.85710    0.27330    1.000
    C141     C        0.73910    0.87590    0.32070    1.000
    C142     C        0.80250    0.93350    0.31250    1.000
    C143     C        0.76020    0.95820    0.21560    1.000
    C144     C        0.69470    0.90080    0.22130    1.000
    C145     C        0.36010    0.41540    0.63780    1.000
    C146     C        0.29740    0.38730    0.67680    1.000
    C147     C        0.25250    0.31350    0.66350    1.000
    C148     C        0.28040    0.27130    0.61240    1.000
    C149     C        0.34100    0.30500    0.57480    1.000
    C150     C        0.18130    0.28320    0.70070    1.000
    C151     C        0.16760    0.30890    0.76010    1.000
    C152     C        0.10150    0.27750    0.79350    1.000
    C153     C        0.04650    0.21940    0.76860    1.000
    C154     C        0.06020    0.19150    0.70860    1.000
    C155     C        0.12530    0.22360    0.67560    1.000
    C156     C        0.00410    0.12840    0.67950    1.000
    C157     C        0.90870    0.07740    0.61880    1.000
    C158     C        0.84020    0.06860    0.57470    1.000
    C159     C        0.83790    0.99790    0.53880    1.000
    C160     C        0.77170    0.98820    0.49700    1.000
    C161     C        0.71000    0.04590    0.49190    1.000
    C162     C        0.71000    0.11860    0.52960    1.000
    C163     C        0.77540    0.12850    0.57050    1.000
    C164     C        0.64290    0.18350    0.52330    1.000
    C165     C        0.62410    0.23910    0.57070    1.000
    C166     C        0.56650    0.30250    0.56250    1.000
    C167     C        0.54180    0.26020    0.46560    1.000
    C168     C        0.59920    0.19470    0.47130    1.000
    C169     C        0.63990    0.58460    0.13780    1.000
    C170     C        0.70260    0.61270    0.17680    1.000
    C171     C        0.74750    0.68650    0.16350    1.000
    C172     C        0.71960    0.72870    0.11240    1.000
    C173     C        0.65900    0.69500    0.07480    1.000
    C174     C        0.81870    0.71680    0.20070    1.000
    C175     C        0.83240    0.69110    0.26010    1.000
    C176     C        0.89850    0.72250    0.29350    1.000
    C177     C        0.95350    0.78060    0.26860    1.000
    C178     C        0.93980    0.80850    0.20860    1.000
    C179     C        0.87470    0.77640    0.17560    1.000
    C180     C        0.99590    0.87160    0.17950    1.000
    C181     C        0.09130    0.92260    0.11880    1.000
    C182     C        0.15980    0.93140    0.07470    1.000
    C183     C        0.16210    0.00210    0.03880    1.000
    C184     C        0.22830    0.01180    0.99700    1.000
    C185     C        0.29000    0.95410    0.99190    1.000
    C186     C        0.29000    0.88140    0.02960    1.000
    C187     C        0.22460    0.87150    0.07050    1.000
    C188     C        0.35710    0.81650    0.02330    1.000
    C189     C        0.37590    0.76090    0.07070    1.000
    C190     C        0.43350    0.69750    0.06250    1.000
    C191     C        0.45820    0.73980    0.96560    1.000
    C192     C        0.40080    0.80530    0.97130    1.000
    N1       N        0.37880    0.37960    0.41300    1.000
    N2       N        0.01490    0.94420    0.35400    1.000
    N3       N        0.04750    0.00520    0.31630    1.000
    N4       N        0.15030    0.94390    0.36160    1.000
    N5       N        0.23180    0.92590    0.38350    1.000
    N6       N        0.31500    0.52620    0.49010    1.000
    N7       N        0.62120    0.62040    0.91300    1.000
    N8       N        0.98510    0.05580    0.85400    1.000
    N9       N        0.95250    0.99480    0.81630    1.000
    N10      N        0.84970    0.05610    0.86160    1.000
    N11      N        0.76820    0.07410    0.88350    1.000
    N12      N        0.68500    0.47380    0.99010    1.000
    N13      N        0.12040    0.87880    0.66300    1.000
    N14      N        0.55580    0.51490    0.60400    1.000
    N15      N        0.49480    0.54750    0.56630    1.000
    N16      N        0.55610    0.65030    0.61160    1.000
    N17      N        0.57410    0.73180    0.63350    1.000
    N18      N        0.97380    0.81500    0.74010    1.000
    N19      N        0.87960    0.12120    0.16300    1.000
    N20      N        0.44420    0.48510    0.10400    1.000
    N21      N        0.50520    0.45250    0.06630    1.000
    N22      N        0.44390    0.34970    0.11160    1.000
    N23      N        0.42590    0.26820    0.13350    1.000
    N24      N        0.02620    0.18500    0.24010    1.000
    N25      N        0.12120    0.87960    0.83700    1.000
    N26      N        0.48510    0.44420    0.89600    1.000
    N27      N        0.45250    0.50520    0.93370    1.000
    N28      N        0.34970    0.44390    0.88840    1.000
    N29      N        0.26820    0.42590    0.86650    1.000
    N30      N        0.18500    0.02620    0.75990    1.000
    N31      N        0.87880    0.12040    0.33700    1.000
    N32      N        0.51490    0.55580    0.39600    1.000
    N33      N        0.54750    0.49480    0.43370    1.000
    N34      N        0.65030    0.55610    0.38840    1.000
    N35      N        0.73180    0.57410    0.36650    1.000
    N36      N        0.81500    0.97380    0.25990    1.000
    N37      N        0.37960    0.37880    0.58700    1.000
    N38      N        0.94420    0.01490    0.64600    1.000
    N39      N        0.00520    0.04750    0.68370    1.000
    N40      N        0.94390    0.15030    0.63840    1.000
    N41      N        0.92590    0.23180    0.61650    1.000
    N42      N        0.52620    0.31500    0.50990    1.000
    N43      N        0.62040    0.62120    0.08700    1.000
    N44      N        0.05580    0.98510    0.14600    1.000
    N45      N        0.99480    0.95250    0.18370    1.000
    N46      N        0.05610    0.84970    0.13840    1.000
    N47      N        0.07410    0.76820    0.11650    1.000
    N48      N        0.47380    0.68500    0.00990    1.000
    Cl1      Cl       0.88041    0.88041    0.00000    1.000
    O1       O        0.82400    0.90160    0.04970    1.000
    O2       O        0.93770    0.84830    0.03440    1.000
    O3       O        0.90160    0.82400    0.95030    1.000
    O4       O        0.84830    0.93770    0.96560    1.000
    Cl2      Cl       0.26883    0.26883    0.00000    1.000
    O5       O        0.23900    0.22870    0.05030    1.000
    O6       O        0.33680    0.21530    0.99800    1.000
    O7       O        0.22870    0.23900    0.94970    1.000
    O8       O        0.21530    0.33680    0.00200    1.000
    Cl3      Cl       0.11959    0.11959    0.50000    1.000
    O9       O        0.17600    0.09840    0.54970    1.000
    O10      O        0.06230    0.15170    0.53440    1.000
    O11      O        0.09840    0.17600    0.45030    1.000
    O12      O        0.15170    0.06230    0.46560    1.000
    Cl4      Cl       0.73117    0.73117    0.50000    1.000
    O13      O        0.76100    0.77130    0.55030    1.000
    O14      O        0.66320    0.78470    0.49800    1.000
    O15      O        0.77130    0.76100    0.44970    1.000
    O16      O        0.78470    0.66320    0.50200    1.000
    Cl5      Cl       0.61959    0.38041    0.25000    1.000
    O17      O        0.59840    0.32400    0.29970    1.000
    O18      O        0.65170    0.43770    0.28440    1.000
    O19      O        0.67600    0.40160    0.20030    1.000
    O20      O        0.56230    0.34830    0.21560    1.000
    Cl6      Cl       0.23117    0.76883    0.25000    1.000
    O21      O        0.27130    0.73900    0.30030    1.000
    O22      O        0.28470    0.83680    0.24800    1.000
    O23      O        0.26100    0.72870    0.19970    1.000
    O24      O        0.16320    0.71530    0.25200    1.000
    Cl7      Cl       0.38041    0.61959    0.75000    1.000
    O25      O        0.40160    0.67600    0.79970    1.000
    O26      O        0.34830    0.56230    0.78440    1.000
    O27      O        0.32400    0.59840    0.70030    1.000
    O28      O        0.43770    0.65170    0.71560    1.000
    Cl8      Cl       0.76883    0.23117    0.75000    1.000
    O29      O        0.72870    0.26100    0.80030    1.000
    O30      O        0.71530    0.16320    0.74800    1.000
    O31      O        0.73900    0.27130    0.69970    1.000
    O32      O        0.83680    0.28470    0.75200    1.000
