# CIF file generated by openbabel 3.1.0, see https://openbabel.org
data_I
_chemical_name_common 'image0'
_cell_length_a 14.9204
_cell_length_b 12.4737
_cell_length_c 16.5884
_cell_angle_alpha 90
_cell_angle_beta 90
_cell_angle_gamma 90
_space_group_name_H-M_alt 'P 1'
_space_group_name_Hall 'P 1'
loop_
    _symmetry_equiv_pos_as_xyz
    x,y,z
loop_
    _atom_site_label
    _atom_site_type_symbol
    _atom_site_fract_x
    _atom_site_fract_y
    _atom_site_fract_z
    _atom_site_occupancy
    Mn1      Mn       0.60400    0.48558    0.58142    1.000
    O1       O        0.59280    0.35250    0.67086    1.000
    O2       O        0.67040    0.49150    0.70604    1.000
    O3       O        0.52760    0.38050    0.50571    1.000
    O4       O        0.49860    0.58540    0.62340    1.000
    O5       O        0.70820    0.48490    0.48870    1.000
    O6       O        0.69830    0.63360    0.55350    1.000
    C1       C        0.63530    0.40280    0.72160    1.000
    C2       C        0.64040    0.36140    0.80730    1.000
    C3       C        0.69410    0.41250    0.86390    1.000
    C4       C        0.59220    0.27100    0.82940    1.000
    H1       H        0.72440    0.47500    0.85000    1.000
    C5       C        0.70300    0.37040    0.94140    1.000
    C6       C        0.59680    0.23180    0.90750    1.000
    H2       H        0.55640    0.23640    0.79160    1.000
    C7       C        0.76870    0.42230    0.99900    1.000
    C8       C        0.65240    0.28100    0.96270    1.000
    C9       C        0.53870    0.13890    0.93210    1.000
    H3       H        0.65610    0.25410    0.01490    1.000
    Mn2      Mn       0.89600    0.51442    0.08142    1.000
    O7       O        0.90720    0.64750    0.17086    1.000
    O8       O        0.82960    0.50850    0.20604    1.000
    O9       O        0.97240    0.61950    0.00571    1.000
    O10      O        0.00140    0.41460    0.12340    1.000
    O11      O        0.79180    0.51510    0.98870    1.000
    O12      O        0.80170    0.36640    0.05350    1.000
    C10      C        0.86470    0.59720    0.22160    1.000
    C11      C        0.85960    0.63860    0.30730    1.000
    C12      C        0.80590    0.58750    0.36390    1.000
    C13      C        0.90780    0.72900    0.32940    1.000
    H4       H        0.77560    0.52500    0.35000    1.000
    C14      C        0.79700    0.62960    0.44140    1.000
    C15      C        0.90320    0.76820    0.40750    1.000
    H5       H        0.94360    0.76360    0.29160    1.000
    C16      C        0.73130    0.57770    0.49900    1.000
    C17      C        0.84760    0.71900    0.46270    1.000
    C18      C        0.96130    0.86110    0.43210    1.000
    H6       H        0.84390    0.74590    0.51490    1.000
    Mn3      Mn       0.39600    0.98558    0.91858    1.000
    O13      O        0.40720    0.85250    0.82914    1.000
    O14      O        0.32960    0.99150    0.79396    1.000
    O15      O        0.47240    0.88050    0.99429    1.000
    O16      O        0.50140    0.08540    0.87660    1.000
    O17      O        0.29180    0.98490    0.01130    1.000
    O18      O        0.30170    0.13360    0.94650    1.000
    C19      C        0.36470    0.90280    0.77840    1.000
    C20      C        0.35960    0.86140    0.69270    1.000
    C21      C        0.30590    0.91250    0.63610    1.000
    C22      C        0.40780    0.77100    0.67060    1.000
    H7       H        0.27560    0.97500    0.65000    1.000
    C23      C        0.29700    0.87040    0.55860    1.000
    C24      C        0.40320    0.73180    0.59250    1.000
    H8       H        0.44360    0.73640    0.70840    1.000
    C25      C        0.23130    0.92230    0.50100    1.000
    C26      C        0.34760    0.78100    0.53730    1.000
    C27      C        0.46130    0.63890    0.56790    1.000
    H9       H        0.34390    0.75410    0.48510    1.000
    Mn4      Mn       0.10400    0.01442    0.41858    1.000
    O19      O        0.09280    0.14750    0.32914    1.000
    O20      O        0.17040    0.00850    0.29396    1.000
    O21      O        0.02760    0.11950    0.49429    1.000
    O22      O        0.99860    0.91460    0.37660    1.000
    O23      O        0.20820    0.01510    0.51130    1.000
    O24      O        0.19830    0.86640    0.44650    1.000
    C28      C        0.13530    0.09720    0.27840    1.000
    C29      C        0.14040    0.13860    0.19270    1.000
    C30      C        0.19410    0.08750    0.13610    1.000
    C31      C        0.09220    0.22900    0.17060    1.000
    H10      H        0.22440    0.02500    0.15000    1.000
    C32      C        0.20300    0.12960    0.05860    1.000
    C33      C        0.09680    0.26820    0.09250    1.000
    H11      H        0.05640    0.26360    0.20840    1.000
    C34      C        0.26870    0.07770    0.00100    1.000
    C35      C        0.15240    0.21900    0.03730    1.000
    C36      C        0.03870    0.36110    0.06790    1.000
    H12      H        0.15610    0.24590    0.98510    1.000
    Mn5      Mn       0.39600    0.51442    0.41858    1.000
    O25      O        0.40720    0.64750    0.32914    1.000
    O26      O        0.32960    0.50850    0.29396    1.000
    O27      O        0.47240    0.61950    0.49429    1.000
    O28      O        0.50140    0.41460    0.37660    1.000
    O29      O        0.29180    0.51510    0.51130    1.000
    O30      O        0.30170    0.36640    0.44650    1.000
    C37      C        0.36470    0.59720    0.27840    1.000
    C38      C        0.35960    0.63860    0.19270    1.000
    C39      C        0.30590    0.58750    0.13610    1.000
    C40      C        0.40780    0.72900    0.17060    1.000
    H13      H        0.27560    0.52500    0.15000    1.000
    C41      C        0.29700    0.62960    0.05860    1.000
    C42      C        0.40320    0.76820    0.09250    1.000
    H14      H        0.44360    0.76360    0.20840    1.000
    C43      C        0.23130    0.57770    0.00100    1.000
    C44      C        0.34760    0.71900    0.03730    1.000
    C45      C        0.46130    0.86110    0.06790    1.000
    H15      H        0.34390    0.74590    0.98510    1.000
    Mn6      Mn       0.10400    0.48558    0.91858    1.000
    O31      O        0.09280    0.35250    0.82914    1.000
    O32      O        0.17040    0.49150    0.79396    1.000
    O33      O        0.02760    0.38050    0.99429    1.000
    O34      O        0.99860    0.58540    0.87660    1.000
    O35      O        0.20820    0.48490    0.01130    1.000
    O36      O        0.19830    0.63360    0.94650    1.000
    C46      C        0.13530    0.40280    0.77840    1.000
    C47      C        0.14040    0.36140    0.69270    1.000
    C48      C        0.19410    0.41250    0.63610    1.000
    C49      C        0.09220    0.27100    0.67060    1.000
    H16      H        0.22440    0.47500    0.65000    1.000
    C50      C        0.20300    0.37040    0.55860    1.000
    C51      C        0.09680    0.23180    0.59250    1.000
    H17      H        0.05640    0.23640    0.70840    1.000
    C52      C        0.26870    0.42230    0.50100    1.000
    C53      C        0.15240    0.28100    0.53730    1.000
    C54      C        0.03870    0.13890    0.56790    1.000
    H18      H        0.15610    0.25410    0.48510    1.000
    Mn7      Mn       0.60400    0.01442    0.08142    1.000
    O37      O        0.59280    0.14750    0.17086    1.000
    O38      O        0.67040    0.00850    0.20604    1.000
    O39      O        0.52760    0.11950    0.00571    1.000
    O40      O        0.49860    0.91460    0.12340    1.000
    O41      O        0.70820    0.01510    0.98870    1.000
    O42      O        0.69830    0.86640    0.05350    1.000
    C55      C        0.63530    0.09720    0.22160    1.000
    C56      C        0.64040    0.13860    0.30730    1.000
    C57      C        0.69410    0.08750    0.36390    1.000
    C58      C        0.59220    0.22900    0.32940    1.000
    H19      H        0.72440    0.02500    0.35000    1.000
    C59      C        0.70300    0.12960    0.44140    1.000
    C60      C        0.59680    0.26820    0.40750    1.000
    H20      H        0.55640    0.26360    0.29160    1.000
    C61      C        0.76870    0.07770    0.49900    1.000
    C62      C        0.65240    0.21900    0.46270    1.000
    C63      C        0.53870    0.36110    0.43210    1.000
    H21      H        0.65610    0.24590    0.51490    1.000
    Mn8      Mn       0.89600    0.98558    0.58142    1.000
    O43      O        0.90720    0.85250    0.67086    1.000
    O44      O        0.82960    0.99150    0.70604    1.000
    O45      O        0.97240    0.88050    0.50571    1.000
    O46      O        0.00140    0.08540    0.62340    1.000
    O47      O        0.79180    0.98490    0.48870    1.000
    O48      O        0.80170    0.13360    0.55350    1.000
    C64      C        0.86470    0.90280    0.72160    1.000
    C65      C        0.85960    0.86140    0.80730    1.000
    C66      C        0.80590    0.91250    0.86390    1.000
    C67      C        0.90780    0.77100    0.82940    1.000
    H22      H        0.77560    0.97500    0.85000    1.000
    C68      C        0.79700    0.87040    0.94140    1.000
    C69      C        0.90320    0.73180    0.90750    1.000
    H23      H        0.94360    0.73640    0.79160    1.000
    C70      C        0.73130    0.92230    0.99900    1.000
    C71      C        0.84760    0.78100    0.96270    1.000
    C72      C        0.96130    0.63890    0.93210    1.000
    H24      H        0.84390    0.75410    0.01490    1.000
