# CIF file generated by openbabel 3.1.0, see https://openbabel.org
data_I
_chemical_name_common 'image0'
_cell_length_a 17.9697
_cell_length_b 21.8405
_cell_length_c 12.6666
_cell_angle_alpha 90
_cell_angle_beta 90
_cell_angle_gamma 90
_space_group_name_H-M_alt 'P 1'
_space_group_name_Hall 'P 1'
loop_
    _symmetry_equiv_pos_as_xyz
    x,y,z
loop_
    _atom_site_label
    _atom_site_type_symbol
    _atom_site_fract_x
    _atom_site_fract_y
    _atom_site_fract_z
    _atom_site_occupancy
    Co1      Co       0.33730    0.72967    0.03428    1.000
    Co2      Co       0.17418    0.72165    0.02627    1.000
    S1       S        0.25065    0.60570    0.39188    1.000
    S2       S        0.20725    0.84057    0.67729    1.000
    N1       N        0.44300    0.76030    0.05260    1.000
    N2       N        0.56160    0.79200    0.04150    1.000
    N3       N        0.45980    0.79950    0.13760    1.000
    N4       N        0.51300    0.73110    0.90270    1.000
    N5       N        0.56450    0.85290    0.19800    1.000
    O1       O        0.21340    0.30910    0.50090    1.000
    O2       O        0.17500    0.14040    0.57200    1.000
    O3       O        0.34450    0.70410    0.87790    1.000
    O4       O        0.31580    0.75240    0.19470    1.000
    O5       O        0.22090    0.69480    0.89220    1.000
    O6       O        0.19160    0.74920    0.17430    1.000
    O7       O        0.33590    0.31000    0.47340    1.000
    O8       O        0.29820    0.13310    0.58300    1.000
    O9       O        0.17730    0.62020    0.35560    1.000
    O10      O        0.31330    0.62490    0.33110    1.000
    O11      O        0.13180    0.82710    0.71100    1.000
    O12      O        0.26850    0.82060    0.74060    1.000
    C1       C        0.28110    0.69310    0.84090    1.000
    C2       C        0.27440    0.67300    0.72750    1.000
    C3       C        0.20500    0.66730    0.68170    1.000
    H1       H        0.16270    0.67670    0.72080    1.000
    C4       C        0.19760    0.64790    0.57910    1.000
    H2       H        0.15080    0.64370    0.54880    1.000
    C5       C        0.26070    0.63480    0.52160    1.000
    C6       C        0.33140    0.64080    0.56560    1.000
    H3       H        0.37370    0.63160    0.52640    1.000
    C7       C        0.33730    0.66080    0.66870    1.000
    H4       H        0.38400    0.66600    0.69890    1.000
    C8       C        0.25720    0.52510    0.41150    1.000
    C9       C        0.19310    0.49360    0.43760    1.000
    H5       H        0.14760    0.51360    0.44280    1.000
    C10      C        0.19870    0.43100    0.45580    1.000
    H6       H        0.15620    0.40850    0.47180    1.000
    C11      C        0.26640    0.40210    0.45050    1.000
    C12      C        0.33070    0.43540    0.42410    1.000
    H7       H        0.37650    0.41560    0.41950    1.000
    C13      C        0.32580    0.49770    0.40500    1.000
    H8       H        0.36800    0.52040    0.38820    1.000
    C14      C        0.27250    0.33540    0.47600    1.000
    C15      C        0.25000    0.75730    0.22730    1.000
    C16      C        0.23850    0.77560    0.34150    1.000
    C17      C        0.29900    0.78280    0.40690    1.000
    H9       H        0.34690    0.77640    0.38120    1.000
    C18      C        0.28800    0.79990    0.51220    1.000
    H10      H        0.32840    0.80320    0.55780    1.000
    C19      C        0.21860    0.81150    0.54720    1.000
    C20      C        0.15680    0.80390    0.48340    1.000
    H11      H        0.10910    0.81090    0.50940    1.000
    C21      C        0.16740    0.78550    0.37980    1.000
    H12      H        0.12660    0.77980    0.33580    1.000
    C22      C        0.21510    0.92030    0.65820    1.000
    C23      C        0.28380    0.94840    0.66640    1.000
    H13      H        0.32540    0.92590    0.68620    1.000
    C24      C        0.29010    0.01050    0.64500    1.000
    H14      H        0.33630    0.02970    0.64970    1.000
    C25      C        0.22770    0.04410    0.61660    1.000
    C26      C        0.15940    0.01560    0.61070    1.000
    H15      H        0.11740    0.03830    0.59280    1.000
    C27      C        0.15250    0.95370    0.63100    1.000
    H16      H        0.10630    0.93460    0.62640    1.000
    C28      C        0.23450    0.11140    0.58890    1.000
    C29      C        0.50580    0.75920    0.99790    1.000
    C30      C        0.53060    0.81620    0.13000    1.000
    H17      H        0.56200    0.71900    0.88600    1.000
    H18      H        0.47400    0.71100    0.89600    1.000
    H19      H        0.54900    0.86200    0.26500    1.000
    H20      H        0.61160    0.85700    0.19900    1.000
    Co3      Co       0.66270    0.27033    0.53428    1.000
    Co4      Co       0.82582    0.27835    0.52627    1.000
    S3       S        0.74935    0.39430    0.89188    1.000
    S4       S        0.79275    0.15943    0.17729    1.000
    N6       N        0.55700    0.23970    0.55260    1.000
    N7       N        0.43840    0.20800    0.54150    1.000
    N8       N        0.54020    0.20050    0.63760    1.000
    N9       N        0.48700    0.26890    0.40270    1.000
    N10      N        0.43550    0.14710    0.69800    1.000
    O13      O        0.78660    0.69090    0.00090    1.000
    O14      O        0.82500    0.85960    0.07200    1.000
    O15      O        0.65550    0.29590    0.37790    1.000
    O16      O        0.68420    0.24760    0.69470    1.000
    O17      O        0.77910    0.30520    0.39220    1.000
    O18      O        0.80840    0.25080    0.67430    1.000
    O19      O        0.66410    0.69000    0.97340    1.000
    O20      O        0.70180    0.86690    0.08300    1.000
    O21      O        0.82270    0.37980    0.85560    1.000
    O22      O        0.68670    0.37510    0.83110    1.000
    O23      O        0.86820    0.17290    0.21100    1.000
    O24      O        0.73150    0.17940    0.24060    1.000
    C31      C        0.71890    0.30690    0.34090    1.000
    C32      C        0.72560    0.32700    0.22750    1.000
    C33      C        0.79500    0.33270    0.18170    1.000
    H21      H        0.83730    0.32330    0.22080    1.000
    C34      C        0.80240    0.35210    0.07910    1.000
    H22      H        0.84920    0.35630    0.04880    1.000
    C35      C        0.73930    0.36520    0.02160    1.000
    C36      C        0.66860    0.35920    0.06560    1.000
    H23      H        0.62630    0.36840    0.02640    1.000
    C37      C        0.66270    0.33920    0.16870    1.000
    H24      H        0.61600    0.33400    0.19890    1.000
    C38      C        0.74280    0.47490    0.91150    1.000
    C39      C        0.80690    0.50640    0.93760    1.000
    H25      H        0.85240    0.48640    0.94280    1.000
    C40      C        0.80130    0.56900    0.95580    1.000
    H26      H        0.84380    0.59150    0.97180    1.000
    C41      C        0.73360    0.59790    0.95050    1.000
    C42      C        0.66930    0.56460    0.92410    1.000
    H27      H        0.62350    0.58440    0.91950    1.000
    C43      C        0.67420    0.50230    0.90500    1.000
    H28      H        0.63200    0.47960    0.88820    1.000
    C44      C        0.72750    0.66460    0.97600    1.000
    C45      C        0.75000    0.24270    0.72730    1.000
    C46      C        0.76150    0.22440    0.84150    1.000
    C47      C        0.70100    0.21720    0.90690    1.000
    H29      H        0.65310    0.22360    0.88120    1.000
    C48      C        0.71200    0.20010    0.01220    1.000
    H30      H        0.67160    0.19680    0.05780    1.000
    C49      C        0.78140    0.18850    0.04720    1.000
    C50      C        0.84320    0.19610    0.98340    1.000
    H31      H        0.89090    0.18910    0.00940    1.000
    C51      C        0.83260    0.21450    0.87980    1.000
    H32      H        0.87340    0.22020    0.83580    1.000
    C52      C        0.78490    0.07970    0.15820    1.000
    C53      C        0.71620    0.05160    0.16640    1.000
    H33      H        0.67460    0.07410    0.18620    1.000
    C54      C        0.70990    0.98950    0.14500    1.000
    H34      H        0.66370    0.97030    0.14970    1.000
    C55      C        0.77230    0.95590    0.11660    1.000
    C56      C        0.84060    0.98440    0.11070    1.000
    H35      H        0.88260    0.96170    0.09280    1.000
    C57      C        0.84750    0.04630    0.13100    1.000
    H36      H        0.89370    0.06540    0.12640    1.000
    C58      C        0.76550    0.88860    0.08890    1.000
    C59      C        0.49420    0.24080    0.49790    1.000
    C60      C        0.46940    0.18380    0.63000    1.000
    H37      H        0.43800    0.28100    0.38600    1.000
    H38      H        0.52600    0.28900    0.39600    1.000
    H39      H        0.45100    0.13800    0.76500    1.000
    H40      H        0.38840    0.14300    0.69900    1.000
    Co5      Co       0.83730    0.77033    0.03428    1.000
    Co6      Co       0.67418    0.77835    0.02627    1.000
    S5       S        0.75065    0.89430    0.39188    1.000
    S6       S        0.70725    0.65943    0.67729    1.000
    N11      N        0.94300    0.73970    0.05260    1.000
    N12      N        0.06160    0.70800    0.04150    1.000
    N13      N        0.95980    0.70050    0.13760    1.000
    N14      N        0.01300    0.76890    0.90270    1.000
    N15      N        0.06450    0.64710    0.19800    1.000
    O25      O        0.71340    0.19090    0.50090    1.000
    O26      O        0.67500    0.35960    0.57200    1.000
    O27      O        0.84450    0.79590    0.87790    1.000
    O28      O        0.81580    0.74760    0.19470    1.000
    O29      O        0.72090    0.80520    0.89220    1.000
    O30      O        0.69160    0.75080    0.17430    1.000
    O31      O        0.83590    0.19000    0.47340    1.000
    O32      O        0.79820    0.36690    0.58300    1.000
    O33      O        0.67730    0.87980    0.35560    1.000
    O34      O        0.81330    0.87510    0.33110    1.000
    O35      O        0.63180    0.67290    0.71100    1.000
    O36      O        0.76850    0.67940    0.74060    1.000
    C61      C        0.78110    0.80690    0.84090    1.000
    C62      C        0.77440    0.82700    0.72750    1.000
    C63      C        0.70500    0.83270    0.68170    1.000
    H41      H        0.66270    0.82330    0.72080    1.000
    C64      C        0.69760    0.85210    0.57910    1.000
    H42      H        0.65080    0.85630    0.54880    1.000
    C65      C        0.76070    0.86520    0.52160    1.000
    C66      C        0.83140    0.85920    0.56560    1.000
    H43      H        0.87370    0.86840    0.52640    1.000
    C67      C        0.83730    0.83920    0.66870    1.000
    H44      H        0.88400    0.83400    0.69890    1.000
    C68      C        0.75720    0.97490    0.41150    1.000
    C69      C        0.69310    0.00640    0.43760    1.000
    H45      H        0.64760    0.98640    0.44280    1.000
    C70      C        0.69870    0.06900    0.45580    1.000
    H46      H        0.65620    0.09150    0.47180    1.000
    C71      C        0.76640    0.09790    0.45050    1.000
    C72      C        0.83070    0.06460    0.42410    1.000
    H47      H        0.87650    0.08440    0.41950    1.000
    C73      C        0.82580    0.00230    0.40500    1.000
    H48      H        0.86800    0.97960    0.38820    1.000
    C74      C        0.77250    0.16460    0.47600    1.000
    C75      C        0.75000    0.74270    0.22730    1.000
    C76      C        0.73850    0.72440    0.34150    1.000
    C77      C        0.79900    0.71720    0.40690    1.000
    H49      H        0.84690    0.72360    0.38120    1.000
    C78      C        0.78800    0.70010    0.51220    1.000
    H50      H        0.82840    0.69680    0.55780    1.000
    C79      C        0.71860    0.68850    0.54720    1.000
    C80      C        0.65680    0.69610    0.48340    1.000
    H51      H        0.60910    0.68910    0.50940    1.000
    C81      C        0.66740    0.71450    0.37980    1.000
    H52      H        0.62660    0.72020    0.33580    1.000
    C82      C        0.71510    0.57970    0.65820    1.000
    C83      C        0.78380    0.55160    0.66640    1.000
    H53      H        0.82540    0.57410    0.68620    1.000
    C84      C        0.79010    0.48950    0.64500    1.000
    H54      H        0.83630    0.47030    0.64970    1.000
    C85      C        0.72770    0.45590    0.61660    1.000
    C86      C        0.65940    0.48440    0.61070    1.000
    H55      H        0.61740    0.46170    0.59280    1.000
    C87      C        0.65250    0.54630    0.63100    1.000
    H56      H        0.60630    0.56540    0.62640    1.000
    C88      C        0.73450    0.38860    0.58890    1.000
    C89      C        0.00580    0.74080    0.99790    1.000
    C90      C        0.03060    0.68380    0.13000    1.000
    H57      H        0.06200    0.78100    0.88600    1.000
    H58      H        0.97400    0.78900    0.89600    1.000
    H59      H        0.04900    0.63800    0.26500    1.000
    H60      H        0.11160    0.64300    0.19900    1.000
    Co7      Co       0.16270    0.22967    0.53428    1.000
    Co8      Co       0.32582    0.22165    0.52627    1.000
    S7       S        0.24935    0.10570    0.89188    1.000
    S8       S        0.29275    0.34057    0.17729    1.000
    N16      N        0.05700    0.26030    0.55260    1.000
    N17      N        0.93840    0.29200    0.54150    1.000
    N18      N        0.04020    0.29950    0.63760    1.000
    N19      N        0.98700    0.23110    0.40270    1.000
    N20      N        0.93550    0.35290    0.69800    1.000
    O37      O        0.28660    0.80910    0.00090    1.000
    O38      O        0.32500    0.64040    0.07200    1.000
    O39      O        0.15550    0.20410    0.37790    1.000
    O40      O        0.18420    0.25240    0.69470    1.000
    O41      O        0.27910    0.19480    0.39220    1.000
    O42      O        0.30840    0.24920    0.67430    1.000
    O43      O        0.16410    0.81000    0.97340    1.000
    O44      O        0.20180    0.63310    0.08300    1.000
    O45      O        0.32270    0.12020    0.85560    1.000
    O46      O        0.18670    0.12490    0.83110    1.000
    O47      O        0.36820    0.32710    0.21100    1.000
    O48      O        0.23150    0.32060    0.24060    1.000
    C91      C        0.21890    0.19310    0.34090    1.000
    C92      C        0.22560    0.17300    0.22750    1.000
    C93      C        0.29500    0.16730    0.18170    1.000
    H61      H        0.33730    0.17670    0.22080    1.000
    C94      C        0.30240    0.14790    0.07910    1.000
    H62      H        0.34920    0.14370    0.04880    1.000
    C95      C        0.23930    0.13480    0.02160    1.000
    C96      C        0.16860    0.14080    0.06560    1.000
    H63      H        0.12630    0.13160    0.02640    1.000
    C97      C        0.16270    0.16080    0.16870    1.000
    H64      H        0.11600    0.16600    0.19890    1.000
    C98      C        0.24280    0.02510    0.91150    1.000
    C99      C        0.30690    0.99360    0.93760    1.000
    H65      H        0.35240    0.01360    0.94280    1.000
    C100     C        0.30130    0.93100    0.95580    1.000
    H66      H        0.34380    0.90850    0.97180    1.000
    C101     C        0.23360    0.90210    0.95050    1.000
    C102     C        0.16930    0.93540    0.92410    1.000
    H67      H        0.12350    0.91560    0.91950    1.000
    C103     C        0.17420    0.99770    0.90500    1.000
    H68      H        0.13200    0.02040    0.88820    1.000
    C104     C        0.22750    0.83540    0.97600    1.000
    C105     C        0.25000    0.25730    0.72730    1.000
    C106     C        0.26150    0.27560    0.84150    1.000
    C107     C        0.20100    0.28280    0.90690    1.000
    H69      H        0.15310    0.27640    0.88120    1.000
    C108     C        0.21200    0.29990    0.01220    1.000
    H70      H        0.17160    0.30320    0.05780    1.000
    C109     C        0.28140    0.31150    0.04720    1.000
    C110     C        0.34320    0.30390    0.98340    1.000
    H71      H        0.39090    0.31090    0.00940    1.000
    C111     C        0.33260    0.28550    0.87980    1.000
    H72      H        0.37340    0.27980    0.83580    1.000
    C112     C        0.28490    0.42030    0.15820    1.000
    C113     C        0.21620    0.44840    0.16640    1.000
    H73      H        0.17460    0.42590    0.18620    1.000
    C114     C        0.20990    0.51050    0.14500    1.000
    H74      H        0.16370    0.52970    0.14970    1.000
    C115     C        0.27230    0.54410    0.11660    1.000
    C116     C        0.34060    0.51560    0.11070    1.000
    H75      H        0.38260    0.53830    0.09280    1.000
    C117     C        0.34750    0.45370    0.13100    1.000
    H76      H        0.39370    0.43460    0.12640    1.000
    C118     C        0.26550    0.61140    0.08890    1.000
    C119     C        0.99420    0.25920    0.49790    1.000
    C120     C        0.96940    0.31620    0.63000    1.000
    H77      H        0.93800    0.21900    0.38600    1.000
    H78      H        0.02600    0.21100    0.39600    1.000
    H79      H        0.95100    0.36200    0.76500    1.000
    H80      H        0.88840    0.35700    0.69900    1.000
