# CIF file generated by openbabel 3.1.0, see https://openbabel.org
data_I
_chemical_name_common 'image0'
_cell_length_a 30.978
_cell_length_b 12.62
_cell_length_c 13.339
_cell_angle_alpha 90
_cell_angle_beta 90
_cell_angle_gamma 90
_space_group_name_H-M_alt 'P 1'
_space_group_name_Hall 'P 1'
loop_
    _symmetry_equiv_pos_as_xyz
    x,y,z
loop_
    _atom_site_label
    _atom_site_type_symbol
    _atom_site_fract_x
    _atom_site_fract_y
    _atom_site_fract_z
    _atom_site_occupancy
    Zn1      Zn       0.20299    0.40042    0.10042    1.000
    O1       O        0.14650    0.46660    0.06630    1.000
    N1       N        0.21850    0.38360    0.24460    1.000
    N2       N        0.21620    0.26600    0.03230    1.000
    N3       N        0.24980    0.50590    0.06140    1.000
    C1       C        0.11880    0.40460    0.11010    1.000
    C2       C        0.19590    0.35490    0.32100    1.000
    C3       C        0.25620    0.40950    0.28660    1.000
    N4       N        0.25260    0.23840    0.97510    1.000
    C4       C        0.19440    0.17260    0.03850    1.000
    O2       O        0.12680    0.32500    0.15230    1.000
    C5       C        0.07310    0.44480    0.10210    1.000
    N5       N        0.21620    0.35070    0.40780    1.000
    H1       H        0.16610    0.33770    0.31510    1.000
    N6       N        0.25520    0.39040    0.38360    1.000
    H2       H        0.28020    0.43780    0.25150    1.000
    C6       C        0.24930    0.14290    0.94970    1.000
    Zn2      Zn       0.29566    0.34578    0.92689    1.000
    N7       N        0.21400    0.09610    0.98550    1.000
    H3       H        0.16850    0.16280    0.07570    1.000
    C7       C        0.04180    0.40240    0.16310    1.000
    C8       C        0.06100    0.52300    0.04140    1.000
    Zn3      Zn       0.19533    0.30376    0.54339    1.000
    Zn4      Zn       0.30157    0.43654    0.48712    1.000
    H4       H        0.26990    0.10750    0.90890    1.000
    C9       C        0.99960    0.43450    0.16050    1.000
    H5       H        0.04980    0.34840    0.20910    1.000
    H6       H        0.08310    0.55380    0.00150    1.000
    C10      C        0.01880    0.56610    0.02940    1.000
    N8       N        0.21180    0.15020    0.54410    1.000
    O3       O        0.13900    0.36350    0.57910    1.000
    N9       N        0.23880    0.35420    0.64300    1.000
    O4       O        0.14080    0.91800    0.90880    1.000
    O5       O        0.13610    0.98000    0.06440    1.000
    N10      N        0.22100    0.89280    0.12230    1.000
    H7       H        0.97870    0.40270    0.20310    1.000
    C11      C        0.98750    0.51670    0.09240    1.000
    C12      C        0.00700    0.64610    0.96650    1.000
    C13      C        0.19450    0.06920    0.49390    1.000
    C14      C        0.24650    0.10440    0.58610    1.000
    C15      C        0.11860    0.95860    0.98600    1.000
    C16      C        0.20070    0.89070    0.20690    1.000
    C17      C        0.94390    0.55620    0.09120    1.000
    C18      C        0.96560    0.68190    0.96240    1.000
    H8       H        0.02810    0.67760    0.92450    1.000
    N11      N        0.21670    0.98650    0.49680    1.000
    H9       H        0.16770    0.07390    0.45930    1.000
    H10      H        0.26610    0.14040    0.62910    1.000
    C19      C        0.07160    0.97850    0.96940    1.000
    C20      C        0.26130    0.84040    0.24130    1.000
    N12      N        0.22440    0.86580    0.28330    1.000
    H11      H        0.17080    0.90620    0.21260    1.000
    C21      C        0.93410    0.63280    0.02460    1.000
    H12      H        0.92270    0.52910    0.13590    1.000
    H13      H        0.95790    0.73850    0.91900    1.000
    C22      C        0.05130    0.03970    0.03780    1.000
    C23      C        0.04860    0.93160    0.88810    1.000
    H14      H        0.28560    0.81490    0.27760    1.000
    C24      C        0.88850    0.67940    0.01660    1.000
    O6       O        0.14190    0.87200    0.39650    1.000
    H15      H        0.06620    0.06240    0.09630    1.000
    C25      C        0.00680    0.07070    0.02220    1.000
    H16      H        0.06300    0.88270    0.84540    1.000
    C26      C        0.00630    0.95570    0.87050    1.000
    O7       O        0.87890    0.74870    0.95740    1.000
    C27      C        0.98550    0.02080    0.94550    1.000
    C28      C        0.98550    0.13640    0.08660    1.000
    H17      H        0.99150    0.93130    0.81260    1.000
    C29      C        0.94120    0.05460    0.92870    1.000
    H18      H        0.00050    0.16230    0.14360    1.000
    C30      C        0.94290    0.16740    0.07310    1.000
    C31      C        0.92140    0.12330    0.98990    1.000
    H19      H        0.92580    0.02710    0.87280    1.000
    H20      H        0.92910    0.21570    0.11730    1.000
    C32      C        0.87290    0.15300    0.97400    1.000
    O8       O        0.85250    0.19660    0.05300    1.000
    Zn5      Zn       0.79701    0.59958    0.60042    1.000
    O9       O        0.85350    0.53340    0.56630    1.000
    N13      N        0.78150    0.61640    0.74460    1.000
    N14      N        0.78380    0.73400    0.53230    1.000
    N15      N        0.75020    0.49410    0.56140    1.000
    C33      C        0.88120    0.59540    0.61010    1.000
    C34      C        0.80410    0.64510    0.82100    1.000
    C35      C        0.74380    0.59050    0.78660    1.000
    N16      N        0.74740    0.76160    0.47510    1.000
    C36      C        0.80560    0.82740    0.53850    1.000
    O10      O        0.87320    0.67500    0.65230    1.000
    C37      C        0.92690    0.55520    0.60210    1.000
    N17      N        0.78380    0.64930    0.90780    1.000
    H21      H        0.83390    0.66230    0.81510    1.000
    N18      N        0.74480    0.60960    0.88360    1.000
    H22      H        0.71980    0.56220    0.75150    1.000
    C38      C        0.75070    0.85710    0.44970    1.000
    Zn6      Zn       0.70434    0.65422    0.42689    1.000
    N19      N        0.78600    0.90390    0.48550    1.000
    H23      H        0.83150    0.83720    0.57570    1.000
    C39      C        0.95820    0.59760    0.66310    1.000
    C40      C        0.93900    0.47700    0.54140    1.000
    Zn7      Zn       0.80467    0.69624    0.04339    1.000
    Zn8      Zn       0.69843    0.56346    0.98712    1.000
    H24      H        0.73010    0.89250    0.40890    1.000
    C41      C        0.00040    0.56550    0.66050    1.000
    H25      H        0.95020    0.65160    0.70910    1.000
    H26      H        0.91690    0.44620    0.50150    1.000
    C42      C        0.98120    0.43390    0.52940    1.000
    N20      N        0.78820    0.84980    0.04410    1.000
    O11      O        0.86100    0.63650    0.07910    1.000
    N21      N        0.76120    0.64580    0.14300    1.000
    O12      O        0.85920    0.08200    0.40880    1.000
    O13      O        0.86390    0.02000    0.56440    1.000
    N22      N        0.77900    0.10720    0.62230    1.000
    H27      H        0.02130    0.59730    0.70310    1.000
    C43      C        0.01250    0.48330    0.59240    1.000
    C44      C        0.99300    0.35390    0.46650    1.000
    C45      C        0.80550    0.93080    0.99390    1.000
    C46      C        0.75350    0.89560    0.08610    1.000
    C47      C        0.88140    0.04140    0.48600    1.000
    C48      C        0.79930    0.10930    0.70690    1.000
    C49      C        0.05610    0.44380    0.59120    1.000
    C50      C        0.03440    0.31810    0.46240    1.000
    H28      H        0.97190    0.32240    0.42450    1.000
    N23      N        0.78330    0.01350    0.99680    1.000
    H29      H        0.83230    0.92610    0.95930    1.000
    H30      H        0.73390    0.85960    0.12910    1.000
    C51      C        0.92840    0.02150    0.46940    1.000
    C52      C        0.73870    0.15960    0.74130    1.000
    N24      N        0.77560    0.13420    0.78330    1.000
    H31      H        0.82920    0.09380    0.71260    1.000
    C53      C        0.06590    0.36720    0.52460    1.000
    H32      H        0.07730    0.47090    0.63590    1.000
    H33      H        0.04210    0.26150    0.41900    1.000
    C54      C        0.94870    0.96030    0.53780    1.000
    C55      C        0.95140    0.06840    0.38810    1.000
    H34      H        0.71440    0.18510    0.77760    1.000
    C56      C        0.11150    0.32060    0.51660    1.000
    O14      O        0.85810    0.12800    0.89650    1.000
    H35      H        0.93380    0.93760    0.59630    1.000
    C57      C        0.99320    0.92930    0.52220    1.000
    H36      H        0.93700    0.11730    0.34540    1.000
    C58      C        0.99370    0.04430    0.37050    1.000
    O15      O        0.12110    0.25130    0.45740    1.000
    C59      C        0.01450    0.97920    0.44550    1.000
    C60      C        0.01450    0.86360    0.58660    1.000
    H37      H        0.00850    0.06870    0.31260    1.000
    C61      C        0.05880    0.94540    0.42870    1.000
    H38      H        0.99950    0.83770    0.64360    1.000
    C62      C        0.05710    0.83260    0.57310    1.000
    C63      C        0.07860    0.87670    0.48990    1.000
    H39      H        0.07420    0.97290    0.37280    1.000
    H40      H        0.07090    0.78430    0.61730    1.000
    C64      C        0.12710    0.84700    0.47400    1.000
    O16      O        0.14750    0.80340    0.55300    1.000
    Zn9      Zn       0.70299    0.09958    0.10042    1.000
    O17      O        0.64650    0.03340    0.06630    1.000
    N25      N        0.71850    0.11640    0.24460    1.000
    N26      N        0.71620    0.23400    0.03230    1.000
    N27      N        0.74980    0.99410    0.06140    1.000
    C65      C        0.61880    0.09540    0.11010    1.000
    C66      C        0.69590    0.14510    0.32100    1.000
    C67      C        0.75620    0.09050    0.28660    1.000
    N28      N        0.75260    0.26160    0.97510    1.000
    C68      C        0.69440    0.32740    0.03850    1.000
    O18      O        0.62680    0.17500    0.15230    1.000
    C69      C        0.57310    0.05520    0.10210    1.000
    N29      N        0.71620    0.14930    0.40780    1.000
    H41      H        0.66610    0.16230    0.31510    1.000
    N30      N        0.75520    0.10960    0.38360    1.000
    H42      H        0.78020    0.06220    0.25150    1.000
    C70      C        0.74930    0.35710    0.94970    1.000
    Zn10     Zn       0.79566    0.15422    0.92689    1.000
    N31      N        0.71400    0.40390    0.98550    1.000
    H43      H        0.66850    0.33720    0.07570    1.000
    C71      C        0.54180    0.09760    0.16310    1.000
    C72      C        0.56100    0.97700    0.04140    1.000
    Zn11     Zn       0.69533    0.19624    0.54339    1.000
    Zn12     Zn       0.80157    0.06346    0.48712    1.000
    H44      H        0.76990    0.39250    0.90890    1.000
    C73      C        0.49960    0.06550    0.16050    1.000
    H45      H        0.54980    0.15160    0.20910    1.000
    H46      H        0.58310    0.94620    0.00150    1.000
    C74      C        0.51880    0.93390    0.02940    1.000
    N32      N        0.71180    0.34980    0.54410    1.000
    O19      O        0.63900    0.13650    0.57910    1.000
    N33      N        0.73880    0.14580    0.64300    1.000
    O20      O        0.64080    0.58200    0.90880    1.000
    O21      O        0.63610    0.52000    0.06440    1.000
    N34      N        0.72100    0.60720    0.12230    1.000
    H47      H        0.47870    0.09730    0.20310    1.000
    C75      C        0.48750    0.98330    0.09240    1.000
    C76      C        0.50700    0.85390    0.96650    1.000
    C77      C        0.69450    0.43080    0.49390    1.000
    C78      C        0.74650    0.39560    0.58610    1.000
    C79      C        0.61860    0.54140    0.98600    1.000
    C80      C        0.70070    0.60930    0.20690    1.000
    C81      C        0.44390    0.94380    0.09120    1.000
    C82      C        0.46560    0.81810    0.96240    1.000
    H48      H        0.52810    0.82240    0.92450    1.000
    N35      N        0.71670    0.51350    0.49680    1.000
    H49      H        0.66770    0.42610    0.45930    1.000
    H50      H        0.76610    0.35960    0.62910    1.000
    C83      C        0.57160    0.52150    0.96940    1.000
    C84      C        0.76130    0.65960    0.24130    1.000
    N36      N        0.72440    0.63420    0.28330    1.000
    H51      H        0.67080    0.59380    0.21260    1.000
    C85      C        0.43410    0.86720    0.02460    1.000
    H52      H        0.42270    0.97090    0.13590    1.000
    H53      H        0.45790    0.76150    0.91900    1.000
    C86      C        0.55130    0.46030    0.03780    1.000
    C87      C        0.54860    0.56840    0.88810    1.000
    H54      H        0.78560    0.68510    0.27760    1.000
    C88      C        0.38850    0.82060    0.01660    1.000
    O22      O        0.64190    0.62800    0.39650    1.000
    H55      H        0.56620    0.43760    0.09630    1.000
    C89      C        0.50680    0.42930    0.02220    1.000
    H56      H        0.56300    0.61730    0.84540    1.000
    C90      C        0.50630    0.54430    0.87050    1.000
    O23      O        0.37890    0.75130    0.95740    1.000
    C91      C        0.48550    0.47920    0.94550    1.000
    C92      C        0.48550    0.36360    0.08660    1.000
    H57      H        0.49150    0.56870    0.81260    1.000
    C93      C        0.44120    0.44540    0.92870    1.000
    H58      H        0.50050    0.33770    0.14360    1.000
    C94      C        0.44290    0.33260    0.07310    1.000
    C95      C        0.42140    0.37670    0.98990    1.000
    H59      H        0.42580    0.47290    0.87280    1.000
    H60      H        0.42910    0.28430    0.11730    1.000
    C96      C        0.37290    0.34700    0.97400    1.000
    O24      O        0.35250    0.30340    0.05300    1.000
    Zn13     Zn       0.29701    0.90042    0.60042    1.000
    O25      O        0.35350    0.96660    0.56630    1.000
    N37      N        0.28150    0.88360    0.74460    1.000
    N38      N        0.28380    0.76600    0.53230    1.000
    N39      N        0.25020    0.00590    0.56140    1.000
    C97      C        0.38120    0.90460    0.61010    1.000
    C98      C        0.30410    0.85490    0.82100    1.000
    C99      C        0.24380    0.90950    0.78660    1.000
    N40      N        0.24740    0.73840    0.47510    1.000
    C100     C        0.30560    0.67260    0.53850    1.000
    O26      O        0.37320    0.82500    0.65230    1.000
    C101     C        0.42690    0.94480    0.60210    1.000
    N41      N        0.28380    0.85070    0.90780    1.000
    H61      H        0.33390    0.83770    0.81510    1.000
    N42      N        0.24480    0.89040    0.88360    1.000
    H62      H        0.21980    0.93780    0.75150    1.000
    C102     C        0.25070    0.64290    0.44970    1.000
    Zn14     Zn       0.20434    0.84578    0.42689    1.000
    N43      N        0.28600    0.59610    0.48550    1.000
    H63      H        0.33150    0.66280    0.57570    1.000
    C103     C        0.45820    0.90240    0.66310    1.000
    C104     C        0.43900    0.02300    0.54140    1.000
    Zn15     Zn       0.30467    0.80376    0.04339    1.000
    Zn16     Zn       0.19843    0.93654    0.98712    1.000
    H64      H        0.23010    0.60750    0.40890    1.000
    C105     C        0.50040    0.93450    0.66050    1.000
    H65      H        0.45020    0.84840    0.70910    1.000
    H66      H        0.41690    0.05380    0.50150    1.000
    C106     C        0.48120    0.06610    0.52940    1.000
    N44      N        0.28820    0.65020    0.04410    1.000
    O27      O        0.36100    0.86350    0.07910    1.000
    N45      N        0.26120    0.85420    0.14300    1.000
    O28      O        0.35920    0.41800    0.40880    1.000
    O29      O        0.36390    0.48000    0.56440    1.000
    N46      N        0.27900    0.39280    0.62230    1.000
    H67      H        0.52130    0.90270    0.70310    1.000
    C107     C        0.51250    0.01670    0.59240    1.000
    C108     C        0.49300    0.14610    0.46650    1.000
    C109     C        0.30550    0.56920    0.99390    1.000
    C110     C        0.25350    0.60440    0.08610    1.000
    C111     C        0.38140    0.45860    0.48600    1.000
    C112     C        0.29930    0.39070    0.70690    1.000
    C113     C        0.55610    0.05620    0.59120    1.000
    C114     C        0.53440    0.18190    0.46240    1.000
    H68      H        0.47190    0.17760    0.42450    1.000
    N47      N        0.28330    0.48650    0.99680    1.000
    H69      H        0.33230    0.57390    0.95930    1.000
    H70      H        0.23390    0.64040    0.12910    1.000
    C115     C        0.42840    0.47850    0.46940    1.000
    C116     C        0.23870    0.34040    0.74130    1.000
    N48      N        0.27560    0.36580    0.78330    1.000
    H71      H        0.32920    0.40620    0.71260    1.000
    C117     C        0.56590    0.13280    0.52460    1.000
    H72      H        0.57730    0.02910    0.63590    1.000
    H73      H        0.54210    0.23850    0.41900    1.000
    C118     C        0.44870    0.53970    0.53780    1.000
    C119     C        0.45140    0.43160    0.38810    1.000
    H74      H        0.21440    0.31490    0.77760    1.000
    C120     C        0.61150    0.17940    0.51660    1.000
    O30      O        0.35810    0.37200    0.89650    1.000
    H75      H        0.43380    0.56240    0.59630    1.000
    C121     C        0.49320    0.57070    0.52220    1.000
    H76      H        0.43700    0.38270    0.34540    1.000
    C122     C        0.49370    0.45570    0.37050    1.000
    O31      O        0.62110    0.24870    0.45740    1.000
    C123     C        0.51450    0.52080    0.44550    1.000
    C124     C        0.51450    0.63640    0.58660    1.000
    H77      H        0.50850    0.43130    0.31260    1.000
    C125     C        0.55880    0.55460    0.42870    1.000
    H78      H        0.49950    0.66230    0.64360    1.000
    C126     C        0.55710    0.66740    0.57310    1.000
    C127     C        0.57860    0.62330    0.48990    1.000
    H79      H        0.57420    0.52710    0.37280    1.000
    H80      H        0.57090    0.71570    0.61730    1.000
    C128     C        0.62710    0.65300    0.47400    1.000
    O32      O        0.64750    0.69660    0.55300    1.000
