# CIF file generated by openbabel 3.1.0, see https://openbabel.org
data_I
_chemical_name_common 'image0'
_cell_length_a 10.8212
_cell_length_b 10.8212
_cell_length_c 10.8212
_cell_angle_alpha 90
_cell_angle_beta 90
_cell_angle_gamma 90
_space_group_name_H-M_alt 'P 1'
_space_group_name_Hall 'P 1'
loop_
    _symmetry_equiv_pos_as_xyz
    x,y,z
loop_
    _atom_site_label
    _atom_site_type_symbol
    _atom_site_fract_x
    _atom_site_fract_y
    _atom_site_fract_z
    _atom_site_occupancy
    O1       O        0.24600    0.10700    0.02200    1.000
    O2       O        0.25400    0.39300    0.02200    1.000
    O3       O        0.25400    0.10700    0.47800    1.000
    O4       O        0.24600    0.39300    0.47800    1.000
    O5       O        0.02200    0.24600    0.10700    1.000
    O6       O        0.02200    0.25400    0.39300    1.000
    O7       O        0.47800    0.25400    0.10700    1.000
    O8       O        0.47800    0.24600    0.39300    1.000
    O9       O        0.10700    0.02200    0.24600    1.000
    O10      O        0.39300    0.02200    0.25400    1.000
    O11      O        0.10700    0.47800    0.25400    1.000
    O12      O        0.39300    0.47800    0.24600    1.000
    O13      O        0.60700    0.74600    0.97800    1.000
    O14      O        0.89300    0.75400    0.97800    1.000
    O15      O        0.60700    0.75400    0.52200    1.000
    O16      O        0.89300    0.74600    0.52200    1.000
    O17      O        0.74600    0.52200    0.89300    1.000
    O18      O        0.75400    0.52200    0.60700    1.000
    O19      O        0.75400    0.97800    0.89300    1.000
    O20      O        0.74600    0.97800    0.60700    1.000
    O21      O        0.52200    0.60700    0.75400    1.000
    O22      O        0.52200    0.89300    0.74600    1.000
    O23      O        0.97800    0.60700    0.74600    1.000
    O24      O        0.97800    0.89300    0.75400    1.000
    O25      O        0.75400    0.89300    0.97800    1.000
    O26      O        0.74600    0.60700    0.97800    1.000
    O27      O        0.74600    0.89300    0.52200    1.000
    O28      O        0.75400    0.60700    0.52200    1.000
    O29      O        0.97800    0.75400    0.89300    1.000
    O30      O        0.97800    0.74600    0.60700    1.000
    O31      O        0.52200    0.74600    0.89300    1.000
    O32      O        0.52200    0.75400    0.60700    1.000
    O33      O        0.89300    0.97800    0.75400    1.000
    O34      O        0.60700    0.97800    0.74600    1.000
    O35      O        0.89300    0.52200    0.74600    1.000
    O36      O        0.60700    0.52200    0.75400    1.000
    O37      O        0.39300    0.25400    0.02200    1.000
    O38      O        0.10700    0.24600    0.02200    1.000
    O39      O        0.39300    0.24600    0.47800    1.000
    O40      O        0.10700    0.25400    0.47800    1.000
    O41      O        0.25400    0.47800    0.10700    1.000
    O42      O        0.24600    0.47800    0.39300    1.000
    O43      O        0.24600    0.02200    0.10700    1.000
    O44      O        0.25400    0.02200    0.39300    1.000
    O45      O        0.47800    0.39300    0.24600    1.000
    O46      O        0.47800    0.10700    0.25400    1.000
    O47      O        0.02200    0.39300    0.25400    1.000
    O48      O        0.02200    0.10700    0.24600    1.000
    Zn1      Zn       0.25000    0.25000    0.25000    1.000
    Zn2      Zn       0.75000    0.75000    0.75000    1.000
    O49      O        0.14760    0.14760    0.14760    1.000
    C1       C        0.02860    0.02860    0.02860    1.000
    O50      O        0.35240    0.35240    0.14760    1.000
    C2       C        0.47140    0.47140    0.02860    1.000
    O51      O        0.35240    0.14760    0.35240    1.000
    C3       C        0.47140    0.02860    0.47140    1.000
    O52      O        0.14760    0.35240    0.35240    1.000
    C4       C        0.02860    0.47140    0.47140    1.000
    O53      O        0.64760    0.64760    0.85240    1.000
    C5       C        0.52860    0.52860    0.97140    1.000
    O54      O        0.85240    0.85240    0.85240    1.000
    C6       C        0.97140    0.97140    0.97140    1.000
    O55      O        0.64760    0.85240    0.64760    1.000
    C7       C        0.52860    0.97140    0.52860    1.000
    O56      O        0.85240    0.64760    0.64760    1.000
    C8       C        0.97140    0.52860    0.52860    1.000
    C9       C        0.16600    0.08885    0.08885    1.000
    C10      C        0.33400    0.41115    0.08885    1.000
    C11      C        0.33400    0.08885    0.41115    1.000
    C12      C        0.16600    0.41115    0.41115    1.000
    C13      C        0.08885    0.16600    0.08885    1.000
    C14      C        0.08885    0.33400    0.41115    1.000
    C15      C        0.41115    0.33400    0.08885    1.000
    C16      C        0.41115    0.16600    0.41115    1.000
    C17      C        0.08885    0.08885    0.16600    1.000
    C18      C        0.41115    0.08885    0.33400    1.000
    C19      C        0.08885    0.41115    0.33400    1.000
    C20      C        0.41115    0.41115    0.16600    1.000
    C21      C        0.58885    0.66600    0.91115    1.000
    C22      C        0.91115    0.83400    0.91115    1.000
    C23      C        0.58885    0.83400    0.58885    1.000
    C24      C        0.91115    0.66600    0.58885    1.000
    C25      C        0.66600    0.58885    0.91115    1.000
    C26      C        0.83400    0.58885    0.58885    1.000
    C27      C        0.83400    0.91115    0.91115    1.000
    C28      C        0.66600    0.91115    0.58885    1.000
    C29      C        0.58885    0.58885    0.83400    1.000
    C30      C        0.58885    0.91115    0.66600    1.000
    C31      C        0.91115    0.58885    0.66600    1.000
    C32      C        0.91115    0.91115    0.83400    1.000
    C33      C        0.13210    0.13210    0.03610    1.000
    C34      C        0.36790    0.36790    0.03610    1.000
    C35      C        0.36790    0.13210    0.46390    1.000
    C36      C        0.13210    0.36790    0.46390    1.000
    C37      C        0.03610    0.13210    0.13210    1.000
    C38      C        0.03610    0.36790    0.36790    1.000
    C39      C        0.46390    0.36790    0.13210    1.000
    C40      C        0.46390    0.13210    0.36790    1.000
    C41      C        0.13210    0.03610    0.13210    1.000
    C42      C        0.36790    0.03610    0.36790    1.000
    C43      C        0.13210    0.46390    0.36790    1.000
    C44      C        0.36790    0.46390    0.13210    1.000
    C45      C        0.63210    0.63210    0.96390    1.000
    C46      C        0.86790    0.86790    0.96390    1.000
    C47      C        0.63210    0.86790    0.53610    1.000
    C48      C        0.86790    0.63210    0.53610    1.000
    C49      C        0.63210    0.53610    0.86790    1.000
    C50      C        0.86790    0.53610    0.63210    1.000
    C51      C        0.86790    0.96390    0.86790    1.000
    C52      C        0.63210    0.96390    0.63210    1.000
    C53      C        0.53610    0.63210    0.86790    1.000
    C54      C        0.53610    0.86790    0.63210    1.000
    C55      C        0.96390    0.63210    0.63210    1.000
    C56      C        0.96390    0.86790    0.86790    1.000
