# CIF file generated by openbabel 3.1.0, see https://openbabel.org
data_I
_chemical_name_common 'image0'
_cell_length_a 16.4918
_cell_length_b 16.8382
_cell_length_c 18.4883
_cell_angle_alpha 69.539
_cell_angle_beta 66.786
_cell_angle_gamma 63.792
_space_group_name_H-M_alt 'P 1'
_space_group_name_Hall 'P 1'
loop_
    _symmetry_equiv_pos_as_xyz
    x,y,z
loop_
    _atom_site_label
    _atom_site_type_symbol
    _atom_site_fract_x
    _atom_site_fract_y
    _atom_site_fract_z
    _atom_site_occupancy
    Cd1      Cd       0.52168    0.22466    0.54501    1.000
    Cd2      Cd       0.44475    0.29490    0.74787    1.000
    Cd3      Cd       0.37417    0.37397    0.93916    1.000
    O1       O        0.57910    0.34380    0.50400    1.000
    O2       O        0.56170    0.26990    0.62970    1.000
    O3       O        0.33590    0.35030    0.68520    1.000
    O4       O        0.36730    0.27280    0.59530    1.000
    O5       O        0.65340    0.09380    0.56370    1.000
    O6       O        0.53480    0.07800    0.54960    1.000
    O7       O        0.55200    0.23070    0.81520    1.000
    O8       O        0.52830    0.33430    0.87730    1.000
    O9       O        0.32420    0.32620    0.86660    1.000
    O10      O        0.30520    0.25990    0.99440    1.000
    O11      O        0.23950    0.50170    0.95980    1.000
    O12      O        0.37080    0.52360    0.88130    1.000
    N1       N        0.52890    0.25700    0.40930    1.000
    N2       N        0.40880    0.34650    0.05480    1.000
    C1       C        0.50580    0.34090    0.36560    1.000
    H1       H        0.50400    0.38790    0.38400    1.000
    C2       C        0.48410    0.36300    0.29370    1.000
    H2       H        0.46720    0.42400    0.26470    1.000
    C3       C        0.48710    0.29650    0.26470    1.000
    C4       C        0.51800    0.20770    0.30760    1.000
    H3       H        0.52610    0.15890    0.28770    1.000
    C5       C        0.53690    0.19080    0.37940    1.000
    H4       H        0.55630    0.13000    0.40860    1.000
    C6       C        0.45920    0.31660    0.19220    1.000
    C7       C        0.48030    0.38090    0.12390    1.000
    H5       H        0.51240    0.41640    0.12300    1.000
    C8       C        0.45480    0.39300    0.05750    1.000
    H6       H        0.47070    0.43690    0.01110    1.000
    C9       C        0.38890    0.28410    0.11950    1.000
    H7       H        0.35780    0.24930    0.11740    1.000
    C10      C        0.41050    0.26680    0.18890    1.000
    H8       H        0.39330    0.22240    0.23410    1.000
    C11      C        0.58850    0.33000    0.57060    1.000
    C12      C        0.63910    0.37740    0.58170    1.000
    C13      C        0.68320    0.33950    0.64360    1.000
    H9       H        0.67950    0.28390    0.67920    1.000
    C14      C        0.73170    0.38270    0.65310    1.000
    H10      H        0.76180    0.35650    0.69470    1.000
    C15      C        0.73630    0.46490    0.60130    1.000
    C16      C        0.69100    0.50270    0.54030    1.000
    H11      H        0.69330    0.55910    0.50540    1.000
    C17      C        0.64340    0.45930    0.53050    1.000
    H12      H        0.61370    0.48530    0.48870    1.000
    C18      C        0.79030    0.51350    0.60550    1.000
    C19      C        0.88080    0.46740    0.61680    1.000
    H13      H        0.90670    0.40320    0.62630    1.000
    C20      C        0.93290    0.51590    0.61400    1.000
    C21      C        0.89220    0.60920    0.60170    1.000
    H14      H        0.92780    0.64230    0.59890    1.000
    C22      C        0.80200    0.65690    0.59320    1.000
    C23      C        0.75290    0.60630    0.59500    1.000
    H15      H        0.69130    0.63730    0.58860    1.000
    C24      C        0.02880    0.46610    0.62270    1.000
    C25      C        0.08410    0.38220    0.60220    1.000
    H16      H        0.05920    0.35540    0.58260    1.000
    C26      C        0.17420    0.33690    0.60980    1.000
    H17      H        0.20980    0.27960    0.59550    1.000
    C27      C        0.21380    0.37300    0.63770    1.000
    C28      C        0.15930    0.45590    0.66120    1.000
    H18      H        0.18420    0.48060    0.68300    1.000
    C29      C        0.06860    0.50240    0.65280    1.000
    H19      H        0.03290    0.55950    0.66760    1.000
    C30      C        0.31370    0.32850    0.64070    1.000
    C31      C        0.75740    0.75770    0.58230    1.000
    C32      C        0.78470    0.80600    0.60930    1.000
    H20      H        0.83370    0.77510    0.63470    1.000
    C33      C        0.74120    0.89920    0.59970    1.000
    H21      H        0.76190    0.93210    0.61700    1.000
    C34      C        0.66690    0.94500    0.56490    1.000
    C35      C        0.63990    0.89640    0.53780    1.000
    H22      H        0.58920    0.92650    0.51440    1.000
    C36      C        0.68640    0.80440    0.54470    1.000
    H23      H        0.66930    0.77230    0.52330    1.000
    C37      C        0.61530    0.04550    0.55880    1.000
    C38      C        0.57820    0.26450    0.84940    1.000
    C39      C        0.67690    0.21590    0.85720    1.000
    C40      C        0.70620    0.24500    0.90140    1.000
    H24      H        0.66450    0.29500    0.92630    1.000
    C41      C        0.79620    0.20050    0.90850    1.000
    H25      H        0.81570    0.21950    0.93960    1.000
    C42      C        0.85980    0.12790    0.87130    1.000
    C43      C        0.82930    0.10140    0.82650    1.000
    H26      H        0.87130    0.05270    0.80000    1.000
    C44      C        0.73890    0.14490    0.81990    1.000
    H27      H        0.71900    0.12560    0.78920    1.000
    C45      C        0.95690    0.08030    0.87960    1.000
    C46      C        0.00640    0.12610    0.88540    1.000
    H28      H        0.97740    0.18960    0.88230    1.000
    C47      C        0.09560    0.08290    0.89550    1.000
    C48      C        0.13850    0.98730    0.89960    1.000
    H29      H        0.19970    0.95580    0.90690    1.000
    C49      C        0.09140    0.93970    0.89300    1.000
    C50      C        0.00030    0.98640    0.88370    1.000
    H30      H        0.96760    0.95410    0.88010    1.000
    C51      C        0.14640    0.13190    0.90210    1.000
    C52      C        0.14890    0.21350    0.85150    1.000
    H31      H        0.11700    0.23920    0.81110    1.000
    C53      C        0.19760    0.25920    0.85840    1.000
    H32      H        0.20080    0.31430    0.82150    1.000
    C54      C        0.24160    0.22400    0.91930    1.000
    C55      C        0.23870    0.14140    0.97130    1.000
    H33      H        0.26880    0.11680    0.01270    1.000
    C56      C        0.19250    0.09520    0.96330    1.000
    H34      H        0.19170    0.03870    0.99860    1.000
    C57      C        0.29230    0.27210    0.92780    1.000
    C58      C        0.13890    0.84150    0.89560    1.000
    C59      C        0.23350    0.80590    0.85610    1.000
    H35      H        0.26710    0.84590    0.82400    1.000
    C60      C        0.28100    0.71260    0.86210    1.000
    H36      H        0.34640    0.68940    0.83530    1.000
    C61      C        0.23140    0.65370    0.90800    1.000
    C62      C        0.13580    0.68920    0.94430    1.000
    H37      H        0.10120    0.64960    0.97390    1.000
    C63      C        0.08950    0.78220    0.93800    1.000
    H38      H        0.02360    0.80550    0.96290    1.000
    C64      C        0.28320    0.55460    0.91600    1.000
    Cd4      Cd       0.47832    0.77534    0.45499    1.000
    Cd5      Cd       0.55525    0.70510    0.25213    1.000
    Cd6      Cd       0.62583    0.62603    0.06084    1.000
    O13      O        0.42090    0.65620    0.49600    1.000
    O14      O        0.43830    0.73010    0.37030    1.000
    O15      O        0.66410    0.64970    0.31480    1.000
    O16      O        0.63270    0.72720    0.40470    1.000
    O17      O        0.34660    0.90620    0.43630    1.000
    O18      O        0.46520    0.92200    0.45040    1.000
    O19      O        0.44800    0.76930    0.18480    1.000
    O20      O        0.47170    0.66570    0.12270    1.000
    O21      O        0.67580    0.67380    0.13340    1.000
    O22      O        0.69480    0.74010    0.00560    1.000
    O23      O        0.76050    0.49830    0.04020    1.000
    O24      O        0.62920    0.47640    0.11870    1.000
    N3       N        0.47110    0.74300    0.59070    1.000
    N4       N        0.59120    0.65350    0.94520    1.000
    C65      C        0.49420    0.65910    0.63440    1.000
    H39      H        0.49600    0.61210    0.61600    1.000
    C66      C        0.51590    0.63700    0.70630    1.000
    H40      H        0.53280    0.57600    0.73530    1.000
    C67      C        0.51290    0.70350    0.73530    1.000
    C68      C        0.48200    0.79230    0.69240    1.000
    H41      H        0.47390    0.84110    0.71230    1.000
    C69      C        0.46310    0.80920    0.62060    1.000
    H42      H        0.44370    0.87000    0.59140    1.000
    C70      C        0.54080    0.68340    0.80780    1.000
    C71      C        0.51970    0.61910    0.87610    1.000
    H43      H        0.48760    0.58360    0.87700    1.000
    C72      C        0.54520    0.60700    0.94250    1.000
    H44      H        0.52930    0.56310    0.98890    1.000
    C73      C        0.61110    0.71590    0.88050    1.000
    H45      H        0.64220    0.75070    0.88260    1.000
    C74      C        0.58950    0.73320    0.81110    1.000
    H46      H        0.60670    0.77760    0.76590    1.000
    C75      C        0.41150    0.67000    0.42940    1.000
    C76      C        0.36090    0.62260    0.41830    1.000
    C77      C        0.31680    0.66050    0.35640    1.000
    H47      H        0.32050    0.71610    0.32080    1.000
    C78      C        0.26830    0.61730    0.34690    1.000
    H48      H        0.23820    0.64350    0.30530    1.000
    C79      C        0.26370    0.53510    0.39870    1.000
    C80      C        0.30900    0.49730    0.45970    1.000
    H49      H        0.30670    0.44090    0.49460    1.000
    C81      C        0.35660    0.54070    0.46950    1.000
    H50      H        0.38630    0.51470    0.51130    1.000
    C82      C        0.20970    0.48650    0.39450    1.000
    C83      C        0.11920    0.53260    0.38320    1.000
    H51      H        0.09330    0.59680    0.37370    1.000
    C84      C        0.06710    0.48410    0.38600    1.000
    C85      C        0.10780    0.39080    0.39830    1.000
    H52      H        0.07220    0.35770    0.40110    1.000
    C86      C        0.19800    0.34310    0.40680    1.000
    C87      C        0.24710    0.39370    0.40500    1.000
    H53      H        0.30870    0.36270    0.41140    1.000
    C88      C        0.97120    0.53390    0.37730    1.000
    C89      C        0.91590    0.61780    0.39780    1.000
    H54      H        0.94080    0.64460    0.41740    1.000
    C90      C        0.82580    0.66310    0.39020    1.000
    H55      H        0.79020    0.72040    0.40450    1.000
    C91      C        0.78620    0.62700    0.36230    1.000
    C92      C        0.84070    0.54410    0.33880    1.000
    H56      H        0.81580    0.51940    0.31700    1.000
    C93      C        0.93140    0.49760    0.34720    1.000
    H57      H        0.96710    0.44050    0.33240    1.000
    C94      C        0.68630    0.67150    0.35930    1.000
    C95      C        0.24260    0.24230    0.41770    1.000
    C96      C        0.21530    0.19400    0.39070    1.000
    H58      H        0.16630    0.22490    0.36530    1.000
    C97      C        0.25880    0.10080    0.40030    1.000
    H59      H        0.23810    0.06790    0.38300    1.000
    C98      C        0.33310    0.05500    0.43510    1.000
    C99      C        0.36010    0.10360    0.46220    1.000
    H60      H        0.41080    0.07350    0.48560    1.000
    C100     C        0.31360    0.19560    0.45530    1.000
    H61      H        0.33070    0.22770    0.47670    1.000
    C101     C        0.38470    0.95450    0.44120    1.000
    C102     C        0.42180    0.73550    0.15060    1.000
    C103     C        0.32310    0.78410    0.14280    1.000
    C104     C        0.29380    0.75500    0.09860    1.000
    H62      H        0.33550    0.70500    0.07370    1.000
    C105     C        0.20380    0.79950    0.09150    1.000
    H63      H        0.18430    0.78050    0.06040    1.000
    C106     C        0.14020    0.87210    0.12870    1.000
    C107     C        0.17070    0.89860    0.17350    1.000
    H64      H        0.12870    0.94730    0.20000    1.000
    C108     C        0.26110    0.85510    0.18010    1.000
    H65      H        0.28100    0.87440    0.21080    1.000
    C109     C        0.04310    0.91970    0.12040    1.000
    C110     C        0.99360    0.87390    0.11460    1.000
    H66      H        0.02260    0.81040    0.11770    1.000
    C111     C        0.90440    0.91710    0.10450    1.000
    C112     C        0.86150    0.01270    0.10040    1.000
    H67      H        0.80030    0.04420    0.09310    1.000
    C113     C        0.90860    0.06030    0.10700    1.000
    C114     C        0.99970    0.01360    0.11630    1.000
    H68      H        0.03240    0.04590    0.11990    1.000
    C115     C        0.85360    0.86810    0.09790    1.000
    C116     C        0.85110    0.78650    0.14850    1.000
    H69      H        0.88300    0.76080    0.18890    1.000
    C117     C        0.80240    0.74080    0.14160    1.000
    H70      H        0.79920    0.68570    0.17850    1.000
    C118     C        0.75840    0.77600    0.08070    1.000
    C119     C        0.76130    0.85860    0.02870    1.000
    H71      H        0.73120    0.88320    0.98730    1.000
    C120     C        0.80750    0.90480    0.03670    1.000
    H72      H        0.80830    0.96130    0.00140    1.000
    C121     C        0.70770    0.72790    0.07220    1.000
    C122     C        0.86110    0.15850    0.10440    1.000
    C123     C        0.76650    0.19410    0.14390    1.000
    H73      H        0.73290    0.15410    0.17600    1.000
    C124     C        0.71900    0.28740    0.13790    1.000
    H74      H        0.65360    0.31060    0.16470    1.000
    C125     C        0.76860    0.34630    0.09200    1.000
    C126     C        0.86420    0.31080    0.05570    1.000
    H75      H        0.89880    0.35040    0.02610    1.000
    C127     C        0.91050    0.21780    0.06200    1.000
    H76      H        0.97640    0.19450    0.03710    1.000
    C128     C        0.71680    0.44540    0.08400    1.000
