# CIF file generated by openbabel 3.1.0, see https://openbabel.org
data_I
_chemical_name_common 'image0'
_cell_length_a 15.437
_cell_length_b 15.437
_cell_length_c 7.5112
_cell_angle_alpha 90
_cell_angle_beta 90
_cell_angle_gamma 90
_space_group_name_H-M_alt 'P 1'
_space_group_name_Hall 'P 1'
loop_
    _symmetry_equiv_pos_as_xyz
    x,y,z
loop_
    _atom_site_label
    _atom_site_type_symbol
    _atom_site_fract_x
    _atom_site_fract_y
    _atom_site_fract_z
    _atom_site_occupancy
    S1       S        0.41788    0.52951    0.27047    1.000
    S2       S        0.59615    0.58087    0.36300    1.000
    N1       N        0.33320    0.68050    0.66020    1.000
    C1       C        0.47560    0.59060    0.11300    1.000
    C2       C        0.55650    0.61270    0.15760    1.000
    H1       H        0.59080    0.64450    0.07970    1.000
    C3       C        0.50300    0.52250    0.42370    1.000
    C4       C        0.41910    0.69360    0.67500    1.000
    H2       H        0.44660    0.72470    0.58540    1.000
    C5       C        0.46870    0.66390    0.81350    1.000
    H3       H        0.52790    0.67480    0.81600    1.000
    C6       C        0.42970    0.61720    0.95030    1.000
    C7       C        0.34250    0.59960    0.92980    1.000
    H4       H        0.31390    0.56580    0.01390    1.000
    C8       C        0.29760    0.63160    0.78580    1.000
    H5       H        0.23910    0.61820    0.77580    1.000
    S3       S        0.08212    0.97049    0.27047    1.000
    S4       S        0.90385    0.91913    0.36300    1.000
    N2       N        0.16680    0.81950    0.66020    1.000
    C9       C        0.02440    0.90940    0.11300    1.000
    C10      C        0.94350    0.88730    0.15760    1.000
    H6       H        0.90920    0.85550    0.07970    1.000
    C11      C        0.99700    0.97750    0.42370    1.000
    C12      C        0.08090    0.80640    0.67500    1.000
    H7       H        0.05340    0.77530    0.58540    1.000
    C13      C        0.03130    0.83610    0.81350    1.000
    H8       H        0.97210    0.82520    0.81600    1.000
    C14      C        0.07030    0.88280    0.95030    1.000
    C15      C        0.15750    0.90040    0.92980    1.000
    H9       H        0.18610    0.93420    0.01390    1.000
    C16      C        0.20240    0.86840    0.78580    1.000
    H10      H        0.26090    0.88180    0.77580    1.000
    S5       S        0.97049    0.41788    0.27047    1.000
    S6       S        0.91913    0.59615    0.36300    1.000
    N3       N        0.81950    0.33320    0.66020    1.000
    C17      C        0.90940    0.47560    0.11300    1.000
    C18      C        0.88730    0.55650    0.15760    1.000
    H11      H        0.85550    0.59080    0.07970    1.000
    C19      C        0.97750    0.50300    0.42370    1.000
    C20      C        0.80640    0.41910    0.67500    1.000
    H12      H        0.77530    0.44660    0.58540    1.000
    C21      C        0.83610    0.46870    0.81350    1.000
    H13      H        0.82520    0.52790    0.81600    1.000
    C22      C        0.88280    0.42970    0.95030    1.000
    C23      C        0.90040    0.34250    0.92980    1.000
    H14      H        0.93420    0.31390    0.01390    1.000
    C24      C        0.86840    0.29760    0.78580    1.000
    H15      H        0.88180    0.23910    0.77580    1.000
    S7       S        0.52951    0.08212    0.27047    1.000
    S8       S        0.58087    0.90385    0.36300    1.000
    N4       N        0.68050    0.16680    0.66020    1.000
    C25      C        0.59060    0.02440    0.11300    1.000
    C26      C        0.61270    0.94350    0.15760    1.000
    H16      H        0.64450    0.90920    0.07970    1.000
    C27      C        0.52250    0.99700    0.42370    1.000
    C28      C        0.69360    0.08090    0.67500    1.000
    H17      H        0.72470    0.05340    0.58540    1.000
    C29      C        0.66390    0.03130    0.81350    1.000
    H18      H        0.67480    0.97210    0.81600    1.000
    C30      C        0.61720    0.07030    0.95030    1.000
    C31      C        0.59960    0.15750    0.92980    1.000
    H19      H        0.56580    0.18610    0.01390    1.000
    C32      C        0.63160    0.20240    0.78580    1.000
    H20      H        0.61820    0.26090    0.77580    1.000
    S9       S        0.58212    0.47049    0.72953    1.000
    S10      S        0.40385    0.41913    0.63700    1.000
    N5       N        0.66680    0.31950    0.33980    1.000
    C33      C        0.52440    0.40940    0.88700    1.000
    C34      C        0.44350    0.38730    0.84240    1.000
    H21      H        0.40920    0.35550    0.92030    1.000
    C35      C        0.49700    0.47750    0.57630    1.000
    C36      C        0.58090    0.30640    0.32500    1.000
    H22      H        0.55340    0.27530    0.41460    1.000
    C37      C        0.53130    0.33610    0.18650    1.000
    H23      H        0.47210    0.32520    0.18400    1.000
    C38      C        0.57030    0.38280    0.04970    1.000
    C39      C        0.65750    0.40040    0.07020    1.000
    H24      H        0.68610    0.43420    0.98610    1.000
    C40      C        0.70240    0.36840    0.21420    1.000
    H25      H        0.76090    0.38180    0.22420    1.000
    S11      S        0.91788    0.02951    0.72953    1.000
    S12      S        0.09615    0.08087    0.63700    1.000
    N6       N        0.83320    0.18050    0.33980    1.000
    C41      C        0.97560    0.09060    0.88700    1.000
    C42      C        0.05650    0.11270    0.84240    1.000
    H26      H        0.09080    0.14450    0.92030    1.000
    C43      C        0.00300    0.02250    0.57630    1.000
    C44      C        0.91910    0.19360    0.32500    1.000
    H27      H        0.94660    0.22470    0.41460    1.000
    C45      C        0.96870    0.16390    0.18650    1.000
    H28      H        0.02790    0.17480    0.18400    1.000
    C46      C        0.92970    0.11720    0.04970    1.000
    C47      C        0.84250    0.09960    0.07020    1.000
    H29      H        0.81390    0.06580    0.98610    1.000
    C48      C        0.79760    0.13160    0.21420    1.000
    H30      H        0.73910    0.11820    0.22420    1.000
    S13      S        0.02951    0.58212    0.72953    1.000
    S14      S        0.08087    0.40385    0.63700    1.000
    N7       N        0.18050    0.66680    0.33980    1.000
    C49      C        0.09060    0.52440    0.88700    1.000
    C50      C        0.11270    0.44350    0.84240    1.000
    H31      H        0.14450    0.40920    0.92030    1.000
    C51      C        0.02250    0.49700    0.57630    1.000
    C52      C        0.19360    0.58090    0.32500    1.000
    H32      H        0.22470    0.55340    0.41460    1.000
    C53      C        0.16390    0.53130    0.18650    1.000
    H33      H        0.17480    0.47210    0.18400    1.000
    C54      C        0.11720    0.57030    0.04970    1.000
    C55      C        0.09960    0.65750    0.07020    1.000
    H34      H        0.06580    0.68610    0.98610    1.000
    C56      C        0.13160    0.70240    0.21420    1.000
    H35      H        0.11820    0.76090    0.22420    1.000
    S15      S        0.47049    0.91788    0.72953    1.000
    S16      S        0.41913    0.09615    0.63700    1.000
    N8       N        0.31950    0.83320    0.33980    1.000
    C57      C        0.40940    0.97560    0.88700    1.000
    C58      C        0.38730    0.05650    0.84240    1.000
    H36      H        0.35550    0.09080    0.92030    1.000
    C59      C        0.47750    0.00300    0.57630    1.000
    C60      C        0.30640    0.91910    0.32500    1.000
    H37      H        0.27530    0.94660    0.41460    1.000
    C61      C        0.33610    0.96870    0.18650    1.000
    H38      H        0.32520    0.02790    0.18400    1.000
    C62      C        0.38280    0.92970    0.04970    1.000
    C63      C        0.40040    0.84250    0.07020    1.000
    H39      H        0.43420    0.81390    0.98610    1.000
    C64      C        0.36840    0.79760    0.21420    1.000
    H40      H        0.38180    0.73910    0.22420    1.000
    Cu1      Cu       0.25000    0.75000    0.50000    1.000
    Cu2      Cu       0.75000    0.25000    0.50000    1.000
