# CIF file generated by openbabel 3.1.0, see https://openbabel.org
data_I
_chemical_name_common 'image0'
_cell_length_a 19.131
_cell_length_b 19.226
_cell_length_c 7.1899
_cell_angle_alpha 90
_cell_angle_beta 90
_cell_angle_gamma 90
_space_group_name_H-M_alt 'P 1'
_space_group_name_Hall 'P 1'
loop_
    _symmetry_equiv_pos_as_xyz
    x,y,z
loop_
    _atom_site_label
    _atom_site_type_symbol
    _atom_site_fract_x
    _atom_site_fract_y
    _atom_site_fract_z
    _atom_site_occupancy
    Cd1      Cd       0.24558    0.30070    0.66330    1.000
    Ca1      Ca       0.23236    0.35977    0.13047    1.000
    O1       O        0.17840    0.27732    0.93700    1.000
    O2       O        0.12309    0.26548    0.67180    1.000
    O3       O        0.87560    0.19225    0.66420    1.000
    O4       O        0.81998    0.17453    0.92440    1.000
    O5       O        0.25726    0.26842    0.33340    1.000
    O6       O        0.26508    0.19069    0.55480    1.000
    O7       O        0.27879    0.90944    0.10160    1.000
    O8       O        0.28972    0.93879    0.39900    1.000
    C1       C        0.12450    0.26141    0.84600    1.000
    C2       C        0.87570    0.18719    0.83530    1.000
    C3       C        0.06203    0.23579    0.94880    1.000
    C4       C        0.06326    0.22639    0.14010    1.000
    H1       H        0.10420    0.23490    0.20610    1.000
    C5       C        0.00420    0.20450    0.23310    1.000
    H2       H        0.00540    0.19860    0.36140    1.000
    C6       C        0.94360    0.19158    0.13590    1.000
    H3       H        0.90370    0.17740    0.19950    1.000
    C7       C        0.94130    0.19948    0.94410    1.000
    C8       C        0.00105    0.22123    0.85230    1.000
    H4       H        0.00020    0.22620    0.72360    1.000
    C9       C        0.26690    0.20635    0.38690    1.000
    C10      C        0.28630    0.95300    0.23170    1.000
    C11      C        0.28120    0.15049    0.24880    1.000
    C12      C        0.29610    0.16550    0.06510    1.000
    H5       H        0.29710    0.21170    0.02720    1.000
    C13      C        0.30960    0.11411    0.93580    1.000
    H6       H        0.32090    0.12570    0.81390    1.000
    C14      C        0.30610    0.04527    0.99000    1.000
    H7       H        0.31390    0.01020    0.90320    1.000
    C15      C        0.29099    0.02788    0.17470    1.000
    C16      C        0.27970    0.08034    0.30250    1.000
    H8       H        0.27090    0.06900    0.42600    1.000
    Cd2      Cd       0.75442    0.69930    0.16330    1.000
    Ca2      Ca       0.76764    0.64023    0.63047    1.000
    O9       O        0.82160    0.72268    0.43700    1.000
    O10      O        0.87691    0.73452    0.17180    1.000
    O11      O        0.12440    0.80775    0.16420    1.000
    O12      O        0.18002    0.82547    0.42440    1.000
    O13      O        0.74274    0.73158    0.83340    1.000
    O14      O        0.73492    0.80931    0.05480    1.000
    O15      O        0.72121    0.09056    0.60160    1.000
    O16      O        0.71028    0.06121    0.89900    1.000
    C17      C        0.87550    0.73859    0.34600    1.000
    C18      C        0.12430    0.81281    0.33530    1.000
    C19      C        0.93797    0.76421    0.44880    1.000
    C20      C        0.93674    0.77361    0.64010    1.000
    H9       H        0.89580    0.76510    0.70610    1.000
    C21      C        0.99580    0.79550    0.73310    1.000
    H10      H        0.99460    0.80140    0.86140    1.000
    C22      C        0.05640    0.80842    0.63590    1.000
    H11      H        0.09630    0.82260    0.69950    1.000
    C23      C        0.05870    0.80052    0.44410    1.000
    C24      C        0.99895    0.77877    0.35230    1.000
    H12      H        0.99980    0.77380    0.22360    1.000
    C25      C        0.73310    0.79365    0.88690    1.000
    C26      C        0.71370    0.04700    0.73170    1.000
    C27      C        0.71880    0.84951    0.74880    1.000
    C28      C        0.70390    0.83450    0.56510    1.000
    H13      H        0.70290    0.78830    0.52720    1.000
    C29      C        0.69040    0.88589    0.43580    1.000
    H14      H        0.67910    0.87430    0.31390    1.000
    C30      C        0.69390    0.95473    0.49000    1.000
    H15      H        0.68610    0.98980    0.40320    1.000
    C31      C        0.70901    0.97212    0.67470    1.000
    C32      C        0.72030    0.91966    0.80250    1.000
    H16      H        0.72910    0.93100    0.92600    1.000
    Cd3      Cd       0.74558    0.19930    0.66330    1.000
    Ca3      Ca       0.73236    0.14023    0.13047    1.000
    O17      O        0.67840    0.22268    0.93700    1.000
    O18      O        0.62309    0.23452    0.67180    1.000
    O19      O        0.37560    0.30775    0.66420    1.000
    O20      O        0.31998    0.32547    0.92440    1.000
    O21      O        0.75726    0.23158    0.33340    1.000
    O22      O        0.76508    0.30931    0.55480    1.000
    O23      O        0.77879    0.59056    0.10160    1.000
    O24      O        0.78972    0.56121    0.39900    1.000
    C33      C        0.62450    0.23859    0.84600    1.000
    C34      C        0.37570    0.31281    0.83530    1.000
    C35      C        0.56203    0.26421    0.94880    1.000
    C36      C        0.56326    0.27361    0.14010    1.000
    H17      H        0.60420    0.26510    0.20610    1.000
    C37      C        0.50420    0.29550    0.23310    1.000
    H18      H        0.50540    0.30140    0.36140    1.000
    C38      C        0.44360    0.30842    0.13590    1.000
    H19      H        0.40370    0.32260    0.19950    1.000
    C39      C        0.44130    0.30052    0.94410    1.000
    C40      C        0.50105    0.27877    0.85230    1.000
    H20      H        0.50020    0.27380    0.72360    1.000
    C41      C        0.76690    0.29365    0.38690    1.000
    C42      C        0.78630    0.54700    0.23170    1.000
    C43      C        0.78120    0.34951    0.24880    1.000
    C44      C        0.79610    0.33450    0.06510    1.000
    H21      H        0.79710    0.28830    0.02720    1.000
    C45      C        0.80960    0.38589    0.93580    1.000
    H22      H        0.82090    0.37430    0.81390    1.000
    C46      C        0.80610    0.45473    0.99000    1.000
    H23      H        0.81390    0.48980    0.90320    1.000
    C47      C        0.79099    0.47212    0.17470    1.000
    C48      C        0.77970    0.41966    0.30250    1.000
    H24      H        0.77090    0.43100    0.42600    1.000
    Cd4      Cd       0.25442    0.80070    0.16330    1.000
    Ca4      Ca       0.26764    0.85977    0.63047    1.000
    O25      O        0.32160    0.77732    0.43700    1.000
    O26      O        0.37691    0.76548    0.17180    1.000
    O27      O        0.62440    0.69225    0.16420    1.000
    O28      O        0.68002    0.67453    0.42440    1.000
    O29      O        0.24274    0.76842    0.83340    1.000
    O30      O        0.23492    0.69069    0.05480    1.000
    O31      O        0.22121    0.40944    0.60160    1.000
    O32      O        0.21028    0.43879    0.89900    1.000
    C49      C        0.37550    0.76141    0.34600    1.000
    C50      C        0.62430    0.68719    0.33530    1.000
    C51      C        0.43797    0.73579    0.44880    1.000
    C52      C        0.43674    0.72639    0.64010    1.000
    H25      H        0.39580    0.73490    0.70610    1.000
    C53      C        0.49580    0.70450    0.73310    1.000
    H26      H        0.49460    0.69860    0.86140    1.000
    C54      C        0.55640    0.69158    0.63590    1.000
    H27      H        0.59630    0.67740    0.69950    1.000
    C55      C        0.55870    0.69948    0.44410    1.000
    C56      C        0.49895    0.72123    0.35230    1.000
    H28      H        0.49980    0.72620    0.22360    1.000
    C57      C        0.23310    0.70635    0.88690    1.000
    C58      C        0.21370    0.45300    0.73170    1.000
    C59      C        0.21880    0.65049    0.74880    1.000
    C60      C        0.20390    0.66550    0.56510    1.000
    H29      H        0.20290    0.71170    0.52720    1.000
    C61      C        0.19040    0.61411    0.43580    1.000
    H30      H        0.17910    0.62570    0.31390    1.000
    C62      C        0.19390    0.54527    0.49000    1.000
    H31      H        0.18610    0.51020    0.40320    1.000
    C63      C        0.20901    0.52788    0.67470    1.000
    C64      C        0.22030    0.58034    0.80250    1.000
    H32      H        0.22910    0.56900    0.92600    1.000
