# CIF file generated by openbabel 3.1.0, see https://openbabel.org
data_I
_chemical_name_common 'image0'
_cell_length_a 10.414
_cell_length_b 10.615
_cell_length_c 11.317
_cell_angle_alpha 83.45
_cell_angle_beta 75.04
_cell_angle_gamma 69.61
_space_group_name_H-M_alt 'P 1'
_space_group_name_Hall 'P 1'
loop_
    _symmetry_equiv_pos_as_xyz
    x,y,z
loop_
    _atom_site_label
    _atom_site_type_symbol
    _atom_site_fract_x
    _atom_site_fract_y
    _atom_site_fract_z
    _atom_site_occupancy
    Ho1      Ho       0.58673    0.59671    0.63225    1.000
    O1       O        0.39600    0.61610    0.40550    1.000
    O2       O        0.47140    0.74080    0.49800    1.000
    O3       O        0.28400    0.24920    0.43890    1.000
    O4       O        0.05210    0.31840    0.45520    1.000
    O5       O        0.87230    0.06250    0.26180    1.000
    O6       O        0.95000    0.84830    0.27360    1.000
    O7       O        0.00160    0.44210    0.67060    1.000
    O8       O        0.76990    0.49650    0.72000    1.000
    O9       O        0.52920    0.48290    0.16420    1.000
    O10      O        0.65850    0.39240    0.29790    1.000
    O11      O        0.17390    0.24660    0.15990    1.000
    O12      O        0.27130    0.23260    0.96800    1.000
    N1       N        0.95790    0.95670    0.28570    1.000
    N2       N        0.16790    0.26210    0.05290    1.000
    C1       C        0.28170    0.85270    0.40650    1.000
    C2       C        0.28230    0.97730    0.43170    1.000
    H1       H        0.35460    0.98270    0.46270    1.000
    C3       C        0.17580    0.09420    0.41090    1.000
    C4       C        0.06910    0.08590    0.36410    1.000
    H2       H        0.99550    0.16290    0.35220    1.000
    C5       C        0.07330    0.96220    0.33530    1.000
    C6       C        0.17670    0.84360    0.35590    1.000
    H3       H        0.17620    0.76100    0.33660    1.000
    C7       C        0.39050    0.72650    0.43860    1.000
    C8       C        0.17370    0.23120    0.43670    1.000
    C9       C        0.89350    0.41880    0.87680    1.000
    C10      C        0.77130    0.44450    0.96980    1.000
    H4       H        0.68400    0.48440    0.95070    1.000
    C11      C        0.77800    0.41140    0.09050    1.000
    C12      C        0.90960    0.35030    0.11890    1.000
    H5       H        0.91650    0.32760    0.19940    1.000
    C13      C        0.02870    0.32480    0.02450    1.000
    C14      C        0.02470    0.35730    0.90450    1.000
    H6       H        0.10720    0.33880    0.84320    1.000
    C15      C        0.88720    0.45590    0.74670    1.000
    C16      C        0.64640    0.43200    0.19010    1.000
    Ho2      Ho       0.41327    0.40329    0.36775    1.000
    O13      O        0.60400    0.38390    0.59450    1.000
    O14      O        0.52860    0.25920    0.50200    1.000
    O15      O        0.71600    0.75080    0.56110    1.000
    O16      O        0.94790    0.68160    0.54480    1.000
    O17      O        0.12770    0.93750    0.73820    1.000
    O18      O        0.05000    0.15170    0.72640    1.000
    O19      O        0.99840    0.55790    0.32940    1.000
    O20      O        0.23010    0.50350    0.28000    1.000
    O21      O        0.47080    0.51710    0.83580    1.000
    O22      O        0.34150    0.60760    0.70210    1.000
    O23      O        0.82610    0.75340    0.84010    1.000
    O24      O        0.72870    0.76740    0.03200    1.000
    N3       N        0.04210    0.04330    0.71430    1.000
    N4       N        0.83210    0.73790    0.94710    1.000
    C17      C        0.71830    0.14730    0.59350    1.000
    C18      C        0.71770    0.02270    0.56830    1.000
    H7       H        0.64540    0.01730    0.53730    1.000
    C19      C        0.82420    0.90580    0.58910    1.000
    C20      C        0.93090    0.91410    0.63590    1.000
    H8       H        0.00450    0.83710    0.64780    1.000
    C21      C        0.92670    0.03780    0.66470    1.000
    C22      C        0.82330    0.15640    0.64410    1.000
    H9       H        0.82380    0.23900    0.66340    1.000
    C23      C        0.60950    0.27350    0.56140    1.000
    C24      C        0.82630    0.76880    0.56330    1.000
    C25      C        0.10650    0.58120    0.12320    1.000
    C26      C        0.22870    0.55550    0.03020    1.000
    H10      H        0.31600    0.51560    0.04930    1.000
    C27      C        0.22200    0.58860    0.90950    1.000
    C28      C        0.09040    0.64970    0.88110    1.000
    H11      H        0.08350    0.67240    0.80060    1.000
    C29      C        0.97130    0.67520    0.97550    1.000
    C30      C        0.97530    0.64270    0.09550    1.000
    H12      H        0.89280    0.66120    0.15680    1.000
    C31      C        0.11280    0.54410    0.25330    1.000
    C32      C        0.35360    0.56800    0.80990    1.000
    Cu1      Cu       0.00000    0.50000    0.50000    1.000
