# CIF file generated by openbabel 3.1.0, see https://openbabel.org
data_I
_chemical_name_common 'image0'
_cell_length_a 17.9054
_cell_length_b 17.9054
_cell_length_c 10.7305
_cell_angle_alpha 90
_cell_angle_beta 90
_cell_angle_gamma 90
_space_group_name_H-M_alt 'P 1'
_space_group_name_Hall 'P 1'
loop_
    _symmetry_equiv_pos_as_xyz
    x,y,z
loop_
    _atom_site_label
    _atom_site_type_symbol
    _atom_site_fract_x
    _atom_site_fract_y
    _atom_site_fract_z
    _atom_site_occupancy
    O1       O        0.57390    0.05620    0.40670    1.000
    O2       O        0.59680    0.07260    0.20810    1.000
    C1       C        0.61450    0.08250    0.32280    1.000
    C2       C        0.68440    0.12800    0.35270    1.000
    C3       C        0.67900    0.17260    0.47150    1.000
    C4       C        0.71220    0.17520    0.24400    1.000
    C5       C        0.75250    0.07460    0.33650    1.000
    C6       C        0.76660    0.05340    0.20040    1.000
    O3       O        0.07390    0.55620    0.90670    1.000
    O4       O        0.09680    0.57260    0.70810    1.000
    C7       C        0.11450    0.58250    0.82280    1.000
    C8       C        0.18440    0.62800    0.85270    1.000
    C9       C        0.17900    0.67260    0.97150    1.000
    C10      C        0.21220    0.67520    0.74400    1.000
    C11      C        0.25250    0.57460    0.83650    1.000
    C12      C        0.26660    0.55340    0.70040    1.000
    O5       O        0.42610    0.94380    0.40670    1.000
    O6       O        0.40320    0.92740    0.20810    1.000
    C13      C        0.38550    0.91750    0.32280    1.000
    C14      C        0.31560    0.87200    0.35270    1.000
    C15      C        0.32100    0.82740    0.47150    1.000
    C16      C        0.28780    0.82480    0.24400    1.000
    C17      C        0.24750    0.92540    0.33650    1.000
    C18      C        0.23340    0.94660    0.20040    1.000
    O7       O        0.92610    0.44380    0.90670    1.000
    O8       O        0.90320    0.42740    0.70810    1.000
    C19      C        0.88550    0.41750    0.82280    1.000
    C20      C        0.81560    0.37200    0.85270    1.000
    C21      C        0.82100    0.32740    0.97150    1.000
    C22      C        0.78780    0.32480    0.74400    1.000
    C23      C        0.74750    0.42540    0.83650    1.000
    C24      C        0.73340    0.44660    0.70040    1.000
    O9       O        0.05620    0.42610    0.59330    1.000
    O10      O        0.07260    0.40320    0.79190    1.000
    C25      C        0.08250    0.38550    0.67720    1.000
    C26      C        0.12800    0.31560    0.64730    1.000
    C27      C        0.17260    0.32100    0.52850    1.000
    C28      C        0.17520    0.28780    0.75600    1.000
    C29      C        0.07460    0.24750    0.66350    1.000
    C30      C        0.05340    0.23340    0.79960    1.000
    O11      O        0.55620    0.92610    0.09330    1.000
    O12      O        0.57260    0.90320    0.29190    1.000
    C31      C        0.58250    0.88550    0.17720    1.000
    C32      C        0.62800    0.81560    0.14730    1.000
    C33      C        0.67260    0.82100    0.02850    1.000
    C34      C        0.67520    0.78780    0.25600    1.000
    C35      C        0.57460    0.74750    0.16350    1.000
    C36      C        0.55340    0.73340    0.29960    1.000
    O13      O        0.94380    0.57390    0.59330    1.000
    O14      O        0.92740    0.59680    0.79190    1.000
    C37      C        0.91750    0.61450    0.67720    1.000
    C38      C        0.87200    0.68440    0.64730    1.000
    C39      C        0.82740    0.67900    0.52850    1.000
    C40      C        0.82480    0.71220    0.75600    1.000
    C41      C        0.92540    0.75250    0.66350    1.000
    C42      C        0.94660    0.76660    0.79960    1.000
    O15      O        0.44380    0.07390    0.09330    1.000
    O16      O        0.42740    0.09680    0.29190    1.000
    C43      C        0.41750    0.11450    0.17720    1.000
    C44      C        0.37200    0.18440    0.14730    1.000
    C45      C        0.32740    0.17900    0.02850    1.000
    C46      C        0.32480    0.21220    0.25600    1.000
    C47      C        0.42540    0.25250    0.16350    1.000
    C48      C        0.44660    0.26660    0.29960    1.000
    O17      O        0.92610    0.05620    0.34330    1.000
    O18      O        0.90320    0.07260    0.54190    1.000
    C49      C        0.88550    0.08250    0.42720    1.000
    C50      C        0.81560    0.12800    0.39730    1.000
    C51      C        0.82100    0.17260    0.27850    1.000
    C52      C        0.78780    0.17520    0.50600    1.000
    C53      C        0.74750    0.07460    0.41350    1.000
    C54      C        0.73340    0.05340    0.54960    1.000
    O19      O        0.42610    0.55620    0.84330    1.000
    O20      O        0.40320    0.57260    0.04190    1.000
    C55      C        0.38550    0.58250    0.92720    1.000
    C56      C        0.31560    0.62800    0.89730    1.000
    C57      C        0.32100    0.67260    0.77850    1.000
    C58      C        0.28780    0.67520    0.00600    1.000
    C59      C        0.24750    0.57460    0.91350    1.000
    C60      C        0.23340    0.55340    0.04960    1.000
    O21      O        0.07390    0.94380    0.34330    1.000
    O22      O        0.09680    0.92740    0.54190    1.000
    C61      C        0.11450    0.91750    0.42720    1.000
    C62      C        0.18440    0.87200    0.39730    1.000
    C63      C        0.17900    0.82740    0.27850    1.000
    C64      C        0.21220    0.82480    0.50600    1.000
    C65      C        0.25250    0.92540    0.41350    1.000
    C66      C        0.26660    0.94660    0.54960    1.000
    O23      O        0.57390    0.44380    0.84330    1.000
    O24      O        0.59680    0.42740    0.04190    1.000
    C67      C        0.61450    0.41750    0.92720    1.000
    C68      C        0.68440    0.37200    0.89730    1.000
    C69      C        0.67900    0.32740    0.77850    1.000
    C70      C        0.71220    0.32480    0.00600    1.000
    C71      C        0.75250    0.42540    0.91350    1.000
    C72      C        0.76660    0.44660    0.04960    1.000
    O25      O        0.44380    0.42610    0.15670    1.000
    O26      O        0.42740    0.40320    0.95810    1.000
    C73      C        0.41750    0.38550    0.07280    1.000
    C74      C        0.37200    0.31560    0.10270    1.000
    C75      C        0.32740    0.32100    0.22150    1.000
    C76      C        0.32480    0.28780    0.99400    1.000
    C77      C        0.42540    0.24750    0.08650    1.000
    C78      C        0.44660    0.23340    0.95040    1.000
    O27      O        0.94380    0.92610    0.65670    1.000
    O28      O        0.92740    0.90320    0.45810    1.000
    C79      C        0.91750    0.88550    0.57280    1.000
    C80      C        0.87200    0.81560    0.60270    1.000
    C81      C        0.82740    0.82100    0.72150    1.000
    C82      C        0.82480    0.78780    0.49400    1.000
    C83      C        0.92540    0.74750    0.58650    1.000
    C84      C        0.94660    0.73340    0.45040    1.000
    O29      O        0.55620    0.57390    0.15670    1.000
    O30      O        0.57260    0.59680    0.95810    1.000
    C85      C        0.58250    0.61450    0.07280    1.000
    C86      C        0.62800    0.68440    0.10270    1.000
    C87      C        0.67260    0.67900    0.22150    1.000
    C88      C        0.67520    0.71220    0.99400    1.000
    C89      C        0.57460    0.75250    0.08650    1.000
    C90      C        0.55340    0.76660    0.95040    1.000
    O31      O        0.05620    0.07390    0.65670    1.000
    O32      O        0.07260    0.09680    0.45810    1.000
    C91      C        0.08250    0.11450    0.57280    1.000
    C92      C        0.12800    0.18440    0.60270    1.000
    C93      C        0.17260    0.17900    0.72150    1.000
    C94      C        0.17520    0.21220    0.49400    1.000
    C95      C        0.07460    0.25250    0.58650    1.000
    C96      C        0.05340    0.26660    0.45040    1.000
    In1      In       0.50000    0.00000    0.25000    1.000
    In2      In       0.00000    0.50000    0.75000    1.000
    In3      In       0.00000    0.00000    0.50000    1.000
    In4      In       0.50000    0.50000    0.00000    1.000
    C97      C        0.75000    0.00600    0.37500    1.000
    C98      C        0.25000    0.50600    0.87500    1.000
    C99      C        0.25000    0.99400    0.37500    1.000
    C100     C        0.75000    0.49400    0.87500    1.000
    C101     C        0.00600    0.25000    0.62500    1.000
    C102     C        0.99400    0.75000    0.62500    1.000
    C103     C        0.49400    0.25000    0.12500    1.000
    C104     C        0.50600    0.75000    0.12500    1.000
