# CIF file generated by openbabel 3.1.0, see https://openbabel.org
data_I
_chemical_name_common 'image0'
_cell_length_a 20.586
_cell_length_b 20.586
_cell_length_c 7.522
_cell_angle_alpha 90
_cell_angle_beta 90
_cell_angle_gamma 90
_space_group_name_H-M_alt 'P 1'
_space_group_name_Hall 'P 1'
loop_
    _symmetry_equiv_pos_as_xyz
    x,y,z
loop_
    _atom_site_label
    _atom_site_type_symbol
    _atom_site_fract_x
    _atom_site_fract_y
    _atom_site_fract_z
    _atom_site_occupancy
    N1       N        0.00590    0.42370    0.17320    1.000
    C1       C        0.01780    0.32490    0.43050    1.000
    C2       C        0.96080    0.35530    0.39300    1.000
    H1       H        0.92360    0.34410    0.45640    1.000
    C3       C        0.95740    0.40120    0.26700    1.000
    H2       H        0.91660    0.41870    0.24440    1.000
    C4       C        0.06210    0.39780    0.21490    1.000
    H3       H        0.09870    0.41310    0.15590    1.000
    C5       C        0.02570    0.27420    0.57100    1.000
    N2       N        0.98840    0.27880    0.69400    1.000
    N3       N        0.99090    0.07980    0.34250    1.000
    C6       C        0.97230    0.17810    0.08510    1.000
    C7       C        0.02180    0.13490    0.06920    1.000
    H4       H        0.05040    0.13760    0.97360    1.000
    C8       C        0.02970    0.08600    0.19800    1.000
    H5       H        0.06330    0.05630    0.18310    1.000
    C9       C        0.93290    0.17040    0.22880    1.000
    H6       H        0.89800    0.19850    0.24540    1.000
    C10      C        0.95840    0.22660    0.94950    1.000
    N4       N        0.99760    0.23100    0.82800    1.000
    C11      C        0.07420    0.22420    0.54700    1.000
    H7       H        0.09390    0.21410    0.65930    1.000
    H8       H        0.10690    0.23930    0.46590    1.000
    H9       H        0.05410    0.18590    0.49940    1.000
    C12      C        0.90570    0.27250    0.95000    1.000
    H10      H        0.86900    0.25420    0.88970    1.000
    H11      H        0.91900    0.31160    0.89120    1.000
    H12      H        0.89390    0.28230    0.07090    1.000
    C13      C        0.94400    0.12100    0.35110    1.000
    H13      H        0.91540    0.11750    0.44640    1.000
    C14      C        0.07080    0.35040    0.33700    1.000
    H14      H        0.11240    0.33460    0.35970    1.000
    N5       N        0.99410    0.57630    0.17320    1.000
    C15      C        0.98220    0.67510    0.43050    1.000
    C16      C        0.03920    0.64470    0.39300    1.000
    H15      H        0.07640    0.65590    0.45640    1.000
    C17      C        0.04260    0.59880    0.26700    1.000
    H16      H        0.08340    0.58130    0.24440    1.000
    C18      C        0.93790    0.60220    0.21490    1.000
    H17      H        0.90130    0.58690    0.15590    1.000
    C19      C        0.97430    0.72580    0.57100    1.000
    N6       N        0.01160    0.72120    0.69400    1.000
    N7       N        0.00910    0.92020    0.34250    1.000
    C20      C        0.02770    0.82190    0.08510    1.000
    C21      C        0.97820    0.86510    0.06920    1.000
    H18      H        0.94960    0.86240    0.97360    1.000
    C22      C        0.97030    0.91400    0.19800    1.000
    H19      H        0.93670    0.94370    0.18310    1.000
    C23      C        0.06710    0.82960    0.22880    1.000
    H20      H        0.10200    0.80150    0.24540    1.000
    C24      C        0.04160    0.77340    0.94950    1.000
    N8       N        0.00240    0.76900    0.82800    1.000
    C25      C        0.92580    0.77580    0.54700    1.000
    H21      H        0.90610    0.78590    0.65930    1.000
    H22      H        0.89310    0.76070    0.46590    1.000
    H23      H        0.94590    0.81410    0.49940    1.000
    C26      C        0.09430    0.72750    0.95000    1.000
    H24      H        0.13100    0.74580    0.88970    1.000
    H25      H        0.08100    0.68840    0.89120    1.000
    H26      H        0.10610    0.71770    0.07090    1.000
    C27      C        0.05600    0.87900    0.35110    1.000
    H27      H        0.08460    0.88250    0.44640    1.000
    C28      C        0.92920    0.64960    0.33700    1.000
    H28      H        0.88760    0.66540    0.35970    1.000
    N9       N        0.42370    0.99410    0.82680    1.000
    C29      C        0.32490    0.98220    0.56950    1.000
    C30      C        0.35530    0.03920    0.60700    1.000
    H29      H        0.34410    0.07640    0.54360    1.000
    C31      C        0.40120    0.04260    0.73300    1.000
    H30      H        0.41870    0.08340    0.75560    1.000
    C32      C        0.39780    0.93790    0.78510    1.000
    H31      H        0.41310    0.90130    0.84410    1.000
    C33      C        0.27420    0.97430    0.42900    1.000
    N10      N        0.27880    0.01160    0.30600    1.000
    N11      N        0.07980    0.00910    0.65750    1.000
    C34      C        0.17810    0.02770    0.91490    1.000
    C35      C        0.13490    0.97820    0.93080    1.000
    H32      H        0.13760    0.94960    0.02640    1.000
    C36      C        0.08600    0.97030    0.80200    1.000
    H33      H        0.05630    0.93670    0.81690    1.000
    C37      C        0.17040    0.06710    0.77120    1.000
    H34      H        0.19850    0.10200    0.75460    1.000
    C38      C        0.22660    0.04160    0.05050    1.000
    N12      N        0.23100    0.00240    0.17200    1.000
    C39      C        0.22420    0.92580    0.45300    1.000
    H35      H        0.21410    0.90610    0.34070    1.000
    H36      H        0.23930    0.89310    0.53410    1.000
    H37      H        0.18590    0.94590    0.50060    1.000
    C40      C        0.27250    0.09430    0.05000    1.000
    H38      H        0.25420    0.13100    0.11030    1.000
    H39      H        0.31160    0.08100    0.10880    1.000
    H40      H        0.28230    0.10610    0.92910    1.000
    C41      C        0.12100    0.05600    0.64890    1.000
    H41      H        0.11750    0.08460    0.55360    1.000
    C42      C        0.35040    0.92920    0.66300    1.000
    H42      H        0.33460    0.88760    0.64030    1.000
    N13      N        0.57630    0.00590    0.82680    1.000
    C43      C        0.67510    0.01780    0.56950    1.000
    C44      C        0.64470    0.96080    0.60700    1.000
    H43      H        0.65590    0.92360    0.54360    1.000
    C45      C        0.59880    0.95740    0.73300    1.000
    H44      H        0.58130    0.91660    0.75560    1.000
    C46      C        0.60220    0.06210    0.78510    1.000
    H45      H        0.58690    0.09870    0.84410    1.000
    C47      C        0.72580    0.02570    0.42900    1.000
    N14      N        0.72120    0.98840    0.30600    1.000
    N15      N        0.92020    0.99090    0.65750    1.000
    C48      C        0.82190    0.97230    0.91490    1.000
    C49      C        0.86510    0.02180    0.93080    1.000
    H46      H        0.86240    0.05040    0.02640    1.000
    C50      C        0.91400    0.02970    0.80200    1.000
    H47      H        0.94370    0.06330    0.81690    1.000
    C51      C        0.82960    0.93290    0.77120    1.000
    H48      H        0.80150    0.89800    0.75460    1.000
    C52      C        0.77340    0.95840    0.05050    1.000
    N16      N        0.76900    0.99760    0.17200    1.000
    C53      C        0.77580    0.07420    0.45300    1.000
    H49      H        0.78590    0.09390    0.34070    1.000
    H50      H        0.76070    0.10690    0.53410    1.000
    H51      H        0.81410    0.05410    0.50060    1.000
    C54      C        0.72750    0.90570    0.05000    1.000
    H52      H        0.74580    0.86900    0.11030    1.000
    H53      H        0.68840    0.91900    0.10880    1.000
    H54      H        0.71770    0.89390    0.92910    1.000
    C55      C        0.87900    0.94400    0.64890    1.000
    H55      H        0.88250    0.91540    0.55360    1.000
    C56      C        0.64960    0.07080    0.66300    1.000
    H56      H        0.66540    0.11240    0.64030    1.000
    N17      N        0.50590    0.07630    0.17320    1.000
    C57      C        0.51780    0.17510    0.43050    1.000
    C58      C        0.46080    0.14470    0.39300    1.000
    H57      H        0.42360    0.15590    0.45640    1.000
    C59      C        0.45740    0.09880    0.26700    1.000
    H58      H        0.41660    0.08130    0.24440    1.000
    C60      C        0.56210    0.10220    0.21490    1.000
    H59      H        0.59870    0.08690    0.15590    1.000
    C61      C        0.52570    0.22580    0.57100    1.000
    N18      N        0.48840    0.22120    0.69400    1.000
    N19      N        0.49090    0.42020    0.34250    1.000
    C62      C        0.47230    0.32190    0.08510    1.000
    C63      C        0.52180    0.36510    0.06920    1.000
    H60      H        0.55040    0.36240    0.97360    1.000
    C64      C        0.52970    0.41400    0.19800    1.000
    H61      H        0.56330    0.44370    0.18310    1.000
    C65      C        0.43290    0.32960    0.22880    1.000
    H62      H        0.39800    0.30150    0.24540    1.000
    C66      C        0.45840    0.27340    0.94950    1.000
    N20      N        0.49760    0.26900    0.82800    1.000
    C67      C        0.57420    0.27580    0.54700    1.000
    H63      H        0.59390    0.28590    0.65930    1.000
    H64      H        0.60690    0.26070    0.46590    1.000
    H65      H        0.55410    0.31410    0.49940    1.000
    C68      C        0.40570    0.22750    0.95000    1.000
    H66      H        0.36900    0.24580    0.88970    1.000
    H67      H        0.41900    0.18840    0.89120    1.000
    H68      H        0.39390    0.21770    0.07090    1.000
    C69      C        0.44400    0.37900    0.35110    1.000
    H69      H        0.41540    0.38250    0.44640    1.000
    C70      C        0.57080    0.14960    0.33700    1.000
    H70      H        0.61240    0.16540    0.35970    1.000
    N21      N        0.49410    0.92370    0.17320    1.000
    C71      C        0.48220    0.82490    0.43050    1.000
    C72      C        0.53920    0.85530    0.39300    1.000
    H71      H        0.57640    0.84410    0.45640    1.000
    C73      C        0.54260    0.90120    0.26700    1.000
    H72      H        0.58340    0.91870    0.24440    1.000
    C74      C        0.43790    0.89780    0.21490    1.000
    H73      H        0.40130    0.91310    0.15590    1.000
    C75      C        0.47430    0.77420    0.57100    1.000
    N22      N        0.51160    0.77880    0.69400    1.000
    N23      N        0.50910    0.57980    0.34250    1.000
    C76      C        0.52770    0.67810    0.08510    1.000
    C77      C        0.47820    0.63490    0.06920    1.000
    H74      H        0.44960    0.63760    0.97360    1.000
    C78      C        0.47030    0.58600    0.19800    1.000
    H75      H        0.43670    0.55630    0.18310    1.000
    C79      C        0.56710    0.67040    0.22880    1.000
    H76      H        0.60200    0.69850    0.24540    1.000
    C80      C        0.54160    0.72660    0.94950    1.000
    N24      N        0.50240    0.73100    0.82800    1.000
    C81      C        0.42580    0.72420    0.54700    1.000
    H77      H        0.40610    0.71410    0.65930    1.000
    H78      H        0.39310    0.73930    0.46590    1.000
    H79      H        0.44590    0.68590    0.49940    1.000
    C82      C        0.59430    0.77250    0.95000    1.000
    H80      H        0.63100    0.75420    0.88970    1.000
    H81      H        0.58100    0.81160    0.89120    1.000
    H82      H        0.60610    0.78230    0.07090    1.000
    C83      C        0.55600    0.62100    0.35110    1.000
    H83      H        0.58460    0.61750    0.44640    1.000
    C84      C        0.42920    0.85040    0.33700    1.000
    H84      H        0.38760    0.83460    0.35970    1.000
    N25      N        0.92370    0.50590    0.82680    1.000
    C85      C        0.82490    0.51780    0.56950    1.000
    C86      C        0.85530    0.46080    0.60700    1.000
    H85      H        0.84410    0.42360    0.54360    1.000
    C87      C        0.90120    0.45740    0.73300    1.000
    H86      H        0.91870    0.41660    0.75560    1.000
    C88      C        0.89780    0.56210    0.78510    1.000
    H87      H        0.91310    0.59870    0.84410    1.000
    C89      C        0.77420    0.52570    0.42900    1.000
    N26      N        0.77880    0.48840    0.30600    1.000
    N27      N        0.57980    0.49090    0.65750    1.000
    C90      C        0.67810    0.47230    0.91490    1.000
    C91      C        0.63490    0.52180    0.93080    1.000
    H88      H        0.63760    0.55040    0.02640    1.000
    C92      C        0.58600    0.52970    0.80200    1.000
    H89      H        0.55630    0.56330    0.81690    1.000
    C93      C        0.67040    0.43290    0.77120    1.000
    H90      H        0.69850    0.39800    0.75460    1.000
    C94      C        0.72660    0.45840    0.05050    1.000
    N28      N        0.73100    0.49760    0.17200    1.000
    C95      C        0.72420    0.57420    0.45300    1.000
    H91      H        0.71410    0.59390    0.34070    1.000
    H92      H        0.73930    0.60690    0.53410    1.000
    H93      H        0.68590    0.55410    0.50060    1.000
    C96      C        0.77250    0.40570    0.05000    1.000
    H94      H        0.75420    0.36900    0.11030    1.000
    H95      H        0.81160    0.41900    0.10880    1.000
    H96      H        0.78230    0.39390    0.92910    1.000
    C97      C        0.62100    0.44400    0.64890    1.000
    H97      H        0.61750    0.41540    0.55360    1.000
    C98      C        0.85040    0.57080    0.66300    1.000
    H98      H        0.83460    0.61240    0.64030    1.000
    N29      N        0.07630    0.49410    0.82680    1.000
    C99      C        0.17510    0.48220    0.56950    1.000
    C100     C        0.14470    0.53920    0.60700    1.000
    H99      H        0.15590    0.57640    0.54360    1.000
    C101     C        0.09880    0.54260    0.73300    1.000
    H100     H        0.08130    0.58340    0.75560    1.000
    C102     C        0.10220    0.43790    0.78510    1.000
    H101     H        0.08690    0.40130    0.84410    1.000
    C103     C        0.22580    0.47430    0.42900    1.000
    N30      N        0.22120    0.51160    0.30600    1.000
    N31      N        0.42020    0.50910    0.65750    1.000
    C104     C        0.32190    0.52770    0.91490    1.000
    C105     C        0.36510    0.47820    0.93080    1.000
    H102     H        0.36240    0.44960    0.02640    1.000
    C106     C        0.41400    0.47030    0.80200    1.000
    H103     H        0.44370    0.43670    0.81690    1.000
    C107     C        0.32960    0.56710    0.77120    1.000
    H104     H        0.30150    0.60200    0.75460    1.000
    C108     C        0.27340    0.54160    0.05050    1.000
    N32      N        0.26900    0.50240    0.17200    1.000
    C109     C        0.27580    0.42580    0.45300    1.000
    H105     H        0.28590    0.40610    0.34070    1.000
    H106     H        0.26070    0.39310    0.53410    1.000
    H107     H        0.31410    0.44590    0.50060    1.000
    C110     C        0.22750    0.59430    0.05000    1.000
    H108     H        0.24580    0.63100    0.11030    1.000
    H109     H        0.18840    0.58100    0.10880    1.000
    H110     H        0.21770    0.60610    0.92910    1.000
    C111     C        0.37900    0.55600    0.64890    1.000
    H111     H        0.38250    0.58460    0.55360    1.000
    C112     C        0.14960    0.42920    0.66300    1.000
    H112     H        0.16540    0.38760    0.64030    1.000
    Cu1      Cu       0.00000    0.00000    0.50000    1.000
    Cu2      Cu       0.50000    0.50000    0.50000    1.000
    Cu3      Cu       0.00000    0.50000    0.00000    1.000
    Cu4      Cu       0.50000    0.00000    0.00000    1.000
