# CIF file generated by openbabel 3.1.0, see https://openbabel.org
data_I
_chemical_name_common 'image0'
_cell_length_a 34.804
_cell_length_b 14.8607
_cell_length_c 31.624
_cell_angle_alpha 90
_cell_angle_beta 102.083
_cell_angle_gamma 90
_space_group_name_H-M_alt 'P 1'
_space_group_name_Hall 'P 1'
loop_
    _symmetry_equiv_pos_as_xyz
    x,y,z
loop_
    _atom_site_label
    _atom_site_type_symbol
    _atom_site_fract_x
    _atom_site_fract_y
    _atom_site_fract_z
    _atom_site_occupancy
    I1       I        0.02622    0.29820    0.37376    1.000
    Zn1      Zn       0.08597    0.26969    0.33982    1.000
    I2       I        0.12109    0.38568    0.30457    1.000
    N1       N        0.12640    0.20440    0.38650    1.000
    C1       C        0.12180    0.11420    0.39360    1.000
    H1       H        0.10200    0.08380    0.37350    1.000
    C2       C        0.14260    0.06420    0.42620    1.000
    H2       H        0.13890    0.00100    0.42720    1.000
    C3       C        0.17000    0.10900    0.45880    1.000
    C4       C        0.17400    0.20280    0.45370    1.000
    H3       H        0.19110    0.23580    0.47560    1.000
    C5       C        0.15310    0.24890    0.41690    1.000
    H4       H        0.15770    0.31110    0.41330    1.000
    C6       C        0.19260    0.05900    0.49540    1.000
    N2       N        0.18340    0.96980    0.49680    1.000
    C7       C        0.20580    0.92390    0.52810    1.000
    N3       N        0.23550    0.96050    0.56090    1.000
    C8       C        0.24030    0.04660    0.55840    1.000
    N4       N        0.22130    0.09840    0.52100    1.000
    N5       N        0.18180    0.64400    0.51750    1.000
    C9       C        0.20920    0.67800    0.54900    1.000
    H5       H        0.22410    0.63820    0.56940    1.000
    C10      C        0.21760    0.76900    0.55400    1.000
    H6       H        0.23780    0.78710    0.57750    1.000
    C11      C        0.19820    0.83400    0.52670    1.000
    C12      C        0.17010    0.79700    0.49450    1.000
    H7       H        0.15510    0.83580    0.47350    1.000
    C13      C        0.16270    0.70600    0.49090    1.000
    H8       H        0.14250    0.68650    0.46770    1.000
    I3       I        0.12204    0.48806    0.44531    1.000
    Zn2      Zn       0.16946    0.50697    0.51862    1.000
    I4       I        0.22964    0.41019    0.54113    1.000
    N6       N        0.33070    0.18070    0.64550    1.000
    C14      C        0.30950    0.22630    0.61160    1.000
    H9       H        0.31570    0.28730    0.60710    1.000
    C15      C        0.27880    0.18510    0.58350    1.000
    H10      H        0.26150    0.22040    0.56270    1.000
    C16      C        0.27310    0.09330    0.58500    1.000
    C17      C        0.29460    0.04570    0.62040    1.000
    H11      H        0.28990    0.98390    0.62500    1.000
    C18      C        0.32460    0.09720    0.64970    1.000
    H12      H        0.34060    0.06640    0.67330    1.000
    I5       I        0.39003    0.38438    0.65579    1.000
    Zn3      Zn       0.37338    0.24171    0.69104    1.000
    I6       I        0.35217    0.23458    0.76244    1.000
    N7       N        0.42180    0.15430    0.69500    1.000
    C19      C        0.43690    0.11130    0.72830    1.000
    H13      H        0.42670    0.11780    0.75370    1.000
    C20      C        0.46950    0.05200    0.72830    1.000
    H14      H        0.48000    0.01780    0.75350    1.000
    C21      C        0.48540    0.04440    0.69360    1.000
    C22      C        0.46640    0.08550    0.65500    1.000
    H15      H        0.47360    0.07510    0.62800    1.000
    C23      C        0.43570    0.14400    0.66010    1.000
    H16      H        0.42390    0.17910    0.63570    1.000
    C24      C        0.52120    0.98930    0.69280    1.000
    N8       N        0.52550    0.92180    0.72150    1.000
    C25      C        0.55470    0.86690    0.71590    1.000
    N9       N        0.57790    0.87410    0.68700    1.000
    N10      N        0.53980    0.00410    0.66070    1.000
    N11      N        0.57370    0.63030    0.79590    1.000
    C26      C        0.56250    0.78220    0.74480    1.000
    C27      C        0.59680    0.65000    0.76860    1.000
    H17      H        0.61780    0.61020    0.76720    1.000
    C28      C        0.59260    0.72460    0.74220    1.000
    H18      H        0.60980    0.73550    0.72300    1.000
    C29      C        0.53780    0.76300    0.77220    1.000
    H19      H        0.51670    0.80220    0.77410    1.000
    C30      C        0.54410    0.68600    0.79700    1.000
    H20      H        0.52670    0.67280    0.81560    1.000
    I7       I        0.52916    0.49326    0.87184    1.000
    Zn4      Zn       0.58802    0.52573    0.83892    1.000
    I8       I        0.62651    0.41418    0.80338    1.000
    N12      N        0.62120    0.59080    0.89200    1.000
    C31      C        0.65280    0.55100    0.91580    1.000
    H21      H        0.65920    0.49090    0.90940    1.000
    C32      C        0.67590    0.59600    0.94940    1.000
    H22      H        0.69830    0.56720    0.96620    1.000
    C33      C        0.66720    0.68300    0.95920    1.000
    C34      C        0.63450    0.72280    0.93440    1.000
    H23      H        0.62730    0.78250    0.94030    1.000
    C35      C        0.61250    0.67470    0.90110    1.000
    H24      H        0.59000    0.70240    0.88380    1.000
    C36      C        0.69270    0.73780    0.99460    1.000
    N13      N        0.72110    0.69430    0.02200    1.000
    C37      C        0.74010    0.74720    0.05080    1.000
    N14      N        0.73250    0.83580    0.05780    1.000
    C38      C        0.70430    0.86930    0.03090    1.000
    N15      N        0.68130    0.82170    0.99840    1.000
    N16      N        0.83170    0.61750    0.14440    1.000
    C39      C        0.82050    0.70520    0.14930    1.000
    H25      H        0.83430    0.73820    0.17350    1.000
    C40      C        0.79270    0.74470    0.12330    1.000
    H26      H        0.78660    0.80500    0.12930    1.000
    C41      C        0.77130    0.70440    0.08700    1.000
    C42      C        0.78330    0.61440    0.07980    1.000
    H27      H        0.77170    0.58270    0.05420    1.000
    C43      C        0.81140    0.57580    0.11020    1.000
    H28      H        0.81690    0.51400    0.10680    1.000
    N17      N        0.68340    0.15220    0.02480    1.000
    C44      C        0.65860    0.09440    0.00110    1.000
    H29      H        0.63570    0.11750    0.98260    1.000
    C45      C        0.66460    0.00300    0.00220    1.000
    H30      H        0.64620    0.96410    0.98460    1.000
    C46      C        0.69770    0.96860    0.02940    1.000
    C47      C        0.72250    0.02840    0.05390    1.000
    H31      H        0.74470    0.00690    0.07410    1.000
    C48      C        0.71570    0.11930    0.04960    1.000
    H32      H        0.73480    0.15970    0.06500    1.000
    I9       I        0.62558    0.30767    0.94421    1.000
    Zn5      Zn       0.67038    0.28878    0.01843    1.000
    I10      I        0.73249    0.38170    0.04310    1.000
    I11      I        0.85351    0.56453    0.26233    1.000
    Zn6      Zn       0.87438    0.55461    0.19028    1.000
    I12      I        0.89083    0.41061    0.15597    1.000
    N18      N        0.91920    0.64600    0.19270    1.000
    C49      C        0.93090    0.65310    0.15540    1.000
    H33      H        0.91760    0.62490    0.12950    1.000
    C50      C        0.96380    0.70490    0.15750    1.000
    H34      H        0.97270    0.71090    0.13120    1.000
    C51      C        0.98590    0.74900    0.19250    1.000
    C52      C        0.97170    0.73800    0.22940    1.000
    H35      H        0.98470    0.76540    0.25570    1.000
    C53      C        0.93870    0.68690    0.22830    1.000
    H36      H        0.92920    0.68040    0.25420    1.000
    C54      C        0.01990    0.80770    0.19230    1.000
    N19      N        0.04000    0.79160    0.16260    1.000
    C55      C        0.06950    0.84890    0.15930    1.000
    N20      N        0.07720    0.92070    0.18650    1.000
    C56      C        0.05570    0.93410    0.21510    1.000
    N21      N        0.02810    0.87610    0.22070    1.000
    N22      N        0.13930    0.80900    0.06670    1.000
    C57      C        0.14990    0.86200    0.10080    1.000
    H37      H        0.17450    0.89160    0.10380    1.000
    C58      C        0.12900    0.87860    0.13230    1.000
    H38      H        0.13850    0.91780    0.15590    1.000
    C59      C        0.09350    0.83510    0.12760    1.000
    C60      C        0.08170    0.78010    0.09230    1.000
    H39      H        0.05710    0.75020    0.08840    1.000
    C61      C        0.10480    0.76790    0.06260    1.000
    H40      H        0.09600    0.72930    0.03860    1.000
    N23      N        0.07360    0.16480    0.29640    1.000
    C62      C        0.04100    0.11340    0.29280    1.000
    H41      H        0.02210    0.12970    0.30910    1.000
    C63      C        0.03400    0.03910    0.26670    1.000
    H42      H        0.01050    0.00560    0.26530    1.000
    C64      C        0.06120    0.01180    0.24210    1.000
    C65      C        0.09400    0.06550    0.24460    1.000
    H43      H        0.11310    0.05050    0.22830    1.000
    C66      C        0.09890    0.14040    0.27050    1.000
    H44      H        0.12110    0.17750    0.27050    1.000
    N24      N        0.63880    0.99590    0.56750    1.000
    C67      C        0.60380    0.03340    0.56510    1.000
    H45      H        0.59410    0.07230    0.54140    1.000
    C68      C        0.58080    0.01920    0.59470    1.000
    H46      H        0.55600    0.04830    0.59080    1.000
    C69      C        0.65170    0.94270    0.60160    1.000
    H47      H        0.67690    0.91580    0.60550    1.000
    C70      C        0.62850    0.92660    0.63090    1.000
    H48      H        0.63830    0.88600    0.65390    1.000
    C71      C        0.56950    0.94710    0.66220    1.000
    C72      C        0.59260    0.96450    0.62980    1.000
    N25      N        0.18870    0.64100    0.52930    1.000
    C73      C        0.21990    0.67900    0.55490    1.000
    H49      H        0.23870    0.64000    0.57200    1.000
    C74      C        0.22680    0.77000    0.55810    1.000
    H50      H        0.24900    0.79560    0.57680    1.000
    C75      C        0.19830    0.82000    0.53170    1.000
    C76      C        0.16480    0.78800    0.50520    1.000
    H51      H        0.14530    0.82510    0.48830    1.000
    C77      C        0.16220    0.69500    0.50540    1.000
    H52      H        0.14000    0.66830    0.48720    1.000
    C78      C        0.60250    0.66300    0.77880    1.000
    H53      H        0.62710    0.63300    0.78440    1.000
    C79      C        0.59830    0.73900    0.75320    1.000
    H54      H        0.61960    0.76090    0.74170    1.000
    C80      C        0.53210    0.75100    0.76210    1.000
    H55      H        0.50710    0.77970    0.75690    1.000
    C81      C        0.54000    0.67600    0.78750    1.000
    H56      H        0.51950    0.65390    0.80040    1.000
    N26      N        0.63130    0.59630    0.88520    1.000
    C82      C        0.65200    0.55400    0.91990    1.000
    H57      H        0.65190    0.49030    0.91910    1.000
    C83      C        0.67340    0.59400    0.95640    1.000
    H58      H        0.68770    0.56050    0.98030    1.000
    C84      C        0.67210    0.68600    0.95520    1.000
    C85      C        0.65120    0.73170    0.92010    1.000
    H59      H        0.65110    0.79560    0.92000    1.000
    C86      C        0.63040    0.68570    0.88500    1.000
    H60      H        0.61560    0.71730    0.86090    1.000
    N27      N        0.92160    0.62800    0.19280    1.000
    C87      C        0.94600    0.61940    0.16600    1.000
    H61      H        0.94060    0.57220    0.14530    1.000
    C88      C        0.97830    0.67160    0.16530    1.000
    H62      H        0.99400    0.65990    0.14480    1.000
    C89      C        0.98780    0.74100    0.19440    1.000
    C90      C        0.96390    0.75400    0.22340    1.000
    H63      H        0.96920    0.79920    0.24490    1.000
    C91      C        0.93210    0.69700    0.21980    1.000
    H64      H        0.91520    0.70920    0.23920    1.000
    I13      I        0.52622    0.79820    0.37376    1.000
    Zn7      Zn       0.58597    0.76969    0.33982    1.000
    I14      I        0.62109    0.88568    0.30457    1.000
    N28      N        0.62640    0.70440    0.38650    1.000
    C92      C        0.62180    0.61420    0.39360    1.000
    H65      H        0.60200    0.58380    0.37350    1.000
    C93      C        0.64260    0.56420    0.42620    1.000
    H66      H        0.63890    0.50100    0.42720    1.000
    C94      C        0.67000    0.60900    0.45880    1.000
    C95      C        0.67400    0.70280    0.45370    1.000
    H67      H        0.69110    0.73580    0.47560    1.000
    C96      C        0.65310    0.74890    0.41690    1.000
    H68      H        0.65770    0.81110    0.41330    1.000
    C97      C        0.69260    0.55900    0.49540    1.000
    N29      N        0.68340    0.46980    0.49680    1.000
    C98      C        0.70580    0.42390    0.52810    1.000
    N30      N        0.73550    0.46050    0.56090    1.000
    C99      C        0.74030    0.54660    0.55840    1.000
    N31      N        0.72130    0.59840    0.52100    1.000
    N32      N        0.68180    0.14400    0.51750    1.000
    C100     C        0.70920    0.17800    0.54900    1.000
    H69      H        0.72410    0.13820    0.56940    1.000
    C101     C        0.71760    0.26900    0.55400    1.000
    H70      H        0.73780    0.28710    0.57750    1.000
    C102     C        0.69820    0.33400    0.52670    1.000
    C103     C        0.67010    0.29700    0.49450    1.000
    H71      H        0.65510    0.33580    0.47350    1.000
    C104     C        0.66270    0.20600    0.49090    1.000
    H72      H        0.64250    0.18650    0.46770    1.000
    I15      I        0.62204    0.98806    0.44531    1.000
    Zn8      Zn       0.66946    0.00697    0.51862    1.000
    I16      I        0.72964    0.91019    0.54113    1.000
    N33      N        0.83070    0.68070    0.64550    1.000
    C105     C        0.80950    0.72630    0.61160    1.000
    H73      H        0.81570    0.78730    0.60710    1.000
    C106     C        0.77880    0.68510    0.58350    1.000
    H74      H        0.76150    0.72040    0.56270    1.000
    C107     C        0.77310    0.59330    0.58500    1.000
    C108     C        0.79460    0.54570    0.62040    1.000
    H75      H        0.78990    0.48390    0.62500    1.000
    C109     C        0.82460    0.59720    0.64970    1.000
    H76      H        0.84060    0.56640    0.67330    1.000
    I17      I        0.89003    0.88438    0.65579    1.000
    Zn9      Zn       0.87338    0.74171    0.69104    1.000
    I18      I        0.85217    0.73458    0.76244    1.000
    N34      N        0.92180    0.65430    0.69500    1.000
    C110     C        0.93690    0.61130    0.72830    1.000
    H77      H        0.92670    0.61780    0.75370    1.000
    C111     C        0.96950    0.55200    0.72830    1.000
    H78      H        0.98000    0.51780    0.75350    1.000
    C112     C        0.98540    0.54440    0.69360    1.000
    C113     C        0.96640    0.58550    0.65500    1.000
    H79      H        0.97360    0.57510    0.62800    1.000
    C114     C        0.93570    0.64400    0.66010    1.000
    H80      H        0.92390    0.67910    0.63570    1.000
    C115     C        0.02120    0.48930    0.69280    1.000
    N35      N        0.02550    0.42180    0.72150    1.000
    C116     C        0.05470    0.36690    0.71590    1.000
    N36      N        0.07790    0.37410    0.68700    1.000
    N37      N        0.03980    0.50410    0.66070    1.000
    N38      N        0.07370    0.13030    0.79590    1.000
    C117     C        0.06250    0.28220    0.74480    1.000
    C118     C        0.09680    0.15000    0.76860    1.000
    H81      H        0.11780    0.11020    0.76720    1.000
    C119     C        0.09260    0.22460    0.74220    1.000
    H82      H        0.10980    0.23550    0.72300    1.000
    C120     C        0.03780    0.26300    0.77220    1.000
    H83      H        0.01670    0.30220    0.77410    1.000
    C121     C        0.04410    0.18600    0.79700    1.000
    H84      H        0.02670    0.17280    0.81560    1.000
    I19      I        0.02916    0.99326    0.87184    1.000
    Zn10     Zn       0.08802    0.02573    0.83892    1.000
    I20      I        0.12651    0.91418    0.80338    1.000
    N39      N        0.12120    0.09080    0.89200    1.000
    C122     C        0.15280    0.05100    0.91580    1.000
    H85      H        0.15920    0.99090    0.90940    1.000
    C123     C        0.17590    0.09600    0.94940    1.000
    H86      H        0.19830    0.06720    0.96620    1.000
    C124     C        0.16720    0.18300    0.95920    1.000
    C125     C        0.13450    0.22280    0.93440    1.000
    H87      H        0.12730    0.28250    0.94030    1.000
    C126     C        0.11250    0.17470    0.90110    1.000
    H88      H        0.09000    0.20240    0.88380    1.000
    C127     C        0.19270    0.23780    0.99460    1.000
    N40      N        0.22110    0.19430    0.02200    1.000
    C128     C        0.24010    0.24720    0.05080    1.000
    N41      N        0.23250    0.33580    0.05780    1.000
    C129     C        0.20430    0.36930    0.03090    1.000
    N42      N        0.18130    0.32170    0.99840    1.000
    N43      N        0.33170    0.11750    0.14440    1.000
    C130     C        0.32050    0.20520    0.14930    1.000
    H89      H        0.33430    0.23820    0.17350    1.000
    C131     C        0.29270    0.24470    0.12330    1.000
    H90      H        0.28660    0.30500    0.12930    1.000
    C132     C        0.27130    0.20440    0.08700    1.000
    C133     C        0.28330    0.11440    0.07980    1.000
    H91      H        0.27170    0.08270    0.05420    1.000
    C134     C        0.31140    0.07580    0.11020    1.000
    H92      H        0.31690    0.01400    0.10680    1.000
    N44      N        0.18340    0.65220    0.02480    1.000
    C135     C        0.15860    0.59440    0.00110    1.000
    H93      H        0.13570    0.61750    0.98260    1.000
    C136     C        0.16460    0.50300    0.00220    1.000
    H94      H        0.14620    0.46410    0.98460    1.000
    C137     C        0.19770    0.46860    0.02940    1.000
    C138     C        0.22250    0.52840    0.05390    1.000
    H95      H        0.24470    0.50690    0.07410    1.000
    C139     C        0.21570    0.61930    0.04960    1.000
    H96      H        0.23480    0.65970    0.06500    1.000
    I21      I        0.12558    0.80767    0.94421    1.000
    Zn11     Zn       0.17038    0.78878    0.01843    1.000
    I22      I        0.23249    0.88170    0.04310    1.000
    I23      I        0.35351    0.06453    0.26233    1.000
    Zn12     Zn       0.37438    0.05461    0.19028    1.000
    I24      I        0.39083    0.91061    0.15597    1.000
    N45      N        0.41920    0.14600    0.19270    1.000
    C140     C        0.43090    0.15310    0.15540    1.000
    H97      H        0.41760    0.12490    0.12950    1.000
    C141     C        0.46380    0.20490    0.15750    1.000
    H98      H        0.47270    0.21090    0.13120    1.000
    C142     C        0.48590    0.24900    0.19250    1.000
    C143     C        0.47170    0.23800    0.22940    1.000
    H99      H        0.48470    0.26540    0.25570    1.000
    C144     C        0.43870    0.18690    0.22830    1.000
    H100     H        0.42920    0.18040    0.25420    1.000
    C145     C        0.51990    0.30770    0.19230    1.000
    N46      N        0.54000    0.29160    0.16260    1.000
    C146     C        0.56950    0.34890    0.15930    1.000
    N47      N        0.57720    0.42070    0.18650    1.000
    C147     C        0.55570    0.43410    0.21510    1.000
    N48      N        0.52810    0.37610    0.22070    1.000
    N49      N        0.63930    0.30900    0.06670    1.000
    C148     C        0.64990    0.36200    0.10080    1.000
    H101     H        0.67450    0.39160    0.10380    1.000
    C149     C        0.62900    0.37860    0.13230    1.000
    H102     H        0.63850    0.41780    0.15590    1.000
    C150     C        0.59350    0.33510    0.12760    1.000
    C151     C        0.58170    0.28010    0.09230    1.000
    H103     H        0.55710    0.25020    0.08840    1.000
    C152     C        0.60480    0.26790    0.06260    1.000
    H104     H        0.59600    0.22930    0.03860    1.000
    N50      N        0.57360    0.66480    0.29640    1.000
    C153     C        0.54100    0.61340    0.29280    1.000
    H105     H        0.52210    0.62970    0.30910    1.000
    C154     C        0.53400    0.53910    0.26670    1.000
    H106     H        0.51050    0.50560    0.26530    1.000
    C155     C        0.56120    0.51180    0.24210    1.000
    C156     C        0.59400    0.56550    0.24460    1.000
    H107     H        0.61310    0.55050    0.22830    1.000
    C157     C        0.59890    0.64040    0.27050    1.000
    H108     H        0.62110    0.67750    0.27050    1.000
    N51      N        0.13880    0.49590    0.56750    1.000
    C158     C        0.10380    0.53340    0.56510    1.000
    H109     H        0.09410    0.57230    0.54140    1.000
    C159     C        0.08080    0.51920    0.59470    1.000
    H110     H        0.05600    0.54830    0.59080    1.000
    C160     C        0.15170    0.44270    0.60160    1.000
    H111     H        0.17690    0.41580    0.60550    1.000
    C161     C        0.12850    0.42660    0.63090    1.000
    H112     H        0.13830    0.38600    0.65390    1.000
    C162     C        0.06950    0.44710    0.66220    1.000
    C163     C        0.09260    0.46450    0.62980    1.000
    N52      N        0.68870    0.14100    0.52930    1.000
    C164     C        0.71990    0.17900    0.55490    1.000
    H113     H        0.73870    0.14000    0.57200    1.000
    C165     C        0.72680    0.27000    0.55810    1.000
    H114     H        0.74900    0.29560    0.57680    1.000
    C166     C        0.69830    0.32000    0.53170    1.000
    C167     C        0.66480    0.28800    0.50520    1.000
    H115     H        0.64530    0.32510    0.48830    1.000
    C168     C        0.66220    0.19500    0.50540    1.000
    H116     H        0.64000    0.16830    0.48720    1.000
    C169     C        0.10250    0.16300    0.77880    1.000
    H117     H        0.12710    0.13300    0.78440    1.000
    C170     C        0.09830    0.23900    0.75320    1.000
    H118     H        0.11960    0.26090    0.74170    1.000
    C171     C        0.03210    0.25100    0.76210    1.000
    H119     H        0.00710    0.27970    0.75690    1.000
    C172     C        0.04000    0.17600    0.78750    1.000
    H120     H        0.01950    0.15390    0.80040    1.000
    N53      N        0.13130    0.09630    0.88520    1.000
    C173     C        0.15200    0.05400    0.91990    1.000
    H121     H        0.15190    0.99030    0.91910    1.000
    C174     C        0.17340    0.09400    0.95640    1.000
    H122     H        0.18770    0.06050    0.98030    1.000
    C175     C        0.17210    0.18600    0.95520    1.000
    C176     C        0.15120    0.23170    0.92010    1.000
    H123     H        0.15110    0.29560    0.92000    1.000
    C177     C        0.13040    0.18570    0.88500    1.000
    H124     H        0.11560    0.21730    0.86090    1.000
    N54      N        0.42160    0.12800    0.19280    1.000
    C178     C        0.44600    0.11940    0.16600    1.000
    H125     H        0.44060    0.07220    0.14530    1.000
    C179     C        0.47830    0.17160    0.16530    1.000
    H126     H        0.49400    0.15990    0.14480    1.000
    C180     C        0.48780    0.24100    0.19440    1.000
    C181     C        0.46390    0.25400    0.22340    1.000
    H127     H        0.46920    0.29920    0.24490    1.000
    C182     C        0.43210    0.19700    0.21980    1.000
    H128     H        0.41520    0.20920    0.23920    1.000
    I25      I        0.97378    0.29820    0.62624    1.000
    Zn13     Zn       0.91403    0.26969    0.66018    1.000
    I26      I        0.87891    0.38568    0.69543    1.000
    N55      N        0.87360    0.20440    0.61350    1.000
    C183     C        0.87820    0.11420    0.60640    1.000
    H129     H        0.89800    0.08380    0.62650    1.000
    C184     C        0.85740    0.06420    0.57380    1.000
    H130     H        0.86110    0.00100    0.57280    1.000
    C185     C        0.83000    0.10900    0.54120    1.000
    C186     C        0.82600    0.20280    0.54630    1.000
    H131     H        0.80890    0.23580    0.52440    1.000
    C187     C        0.84690    0.24890    0.58310    1.000
    H132     H        0.84230    0.31110    0.58670    1.000
    C188     C        0.80740    0.05900    0.50460    1.000
    N56      N        0.81660    0.96980    0.50320    1.000
    C189     C        0.79420    0.92390    0.47190    1.000
    N57      N        0.76450    0.96050    0.43910    1.000
    C190     C        0.75970    0.04660    0.44160    1.000
    N58      N        0.77870    0.09840    0.47900    1.000
    N59      N        0.81820    0.64400    0.48250    1.000
    C191     C        0.79080    0.67800    0.45100    1.000
    H133     H        0.77590    0.63820    0.43060    1.000
    C192     C        0.78240    0.76900    0.44600    1.000
    H134     H        0.76220    0.78710    0.42250    1.000
    C193     C        0.80180    0.83400    0.47330    1.000
    C194     C        0.82990    0.79700    0.50550    1.000
    H135     H        0.84490    0.83580    0.52650    1.000
    C195     C        0.83730    0.70600    0.50910    1.000
    H136     H        0.85750    0.68650    0.53230    1.000
    I27      I        0.87796    0.48806    0.55469    1.000
    Zn14     Zn       0.83054    0.50697    0.48138    1.000
    I28      I        0.77036    0.41019    0.45887    1.000
    N60      N        0.66930    0.18070    0.35450    1.000
    C196     C        0.69050    0.22630    0.38840    1.000
    H137     H        0.68430    0.28730    0.39290    1.000
    C197     C        0.72120    0.18510    0.41650    1.000
    H138     H        0.73850    0.22040    0.43730    1.000
    C198     C        0.72690    0.09330    0.41500    1.000
    C199     C        0.70540    0.04570    0.37960    1.000
    H139     H        0.71010    0.98390    0.37500    1.000
    C200     C        0.67540    0.09720    0.35030    1.000
    H140     H        0.65940    0.06640    0.32670    1.000
    I29      I        0.60997    0.38438    0.34421    1.000
    Zn15     Zn       0.62662    0.24171    0.30896    1.000
    I30      I        0.64783    0.23458    0.23756    1.000
    N61      N        0.57820    0.15430    0.30500    1.000
    C201     C        0.56310    0.11130    0.27170    1.000
    H141     H        0.57330    0.11780    0.24630    1.000
    C202     C        0.53050    0.05200    0.27170    1.000
    H142     H        0.52000    0.01780    0.24650    1.000
    C203     C        0.51460    0.04440    0.30640    1.000
    C204     C        0.53360    0.08550    0.34500    1.000
    H143     H        0.52640    0.07510    0.37200    1.000
    C205     C        0.56430    0.14400    0.33990    1.000
    H144     H        0.57610    0.17910    0.36430    1.000
    C206     C        0.47880    0.98930    0.30720    1.000
    N62      N        0.47450    0.92180    0.27850    1.000
    C207     C        0.44530    0.86690    0.28410    1.000
    N63      N        0.42210    0.87410    0.31300    1.000
    N64      N        0.46020    0.00410    0.33930    1.000
    N65      N        0.42630    0.63030    0.20410    1.000
    C208     C        0.43750    0.78220    0.25520    1.000
    C209     C        0.40320    0.65000    0.23140    1.000
    H145     H        0.38220    0.61020    0.23280    1.000
    C210     C        0.40740    0.72460    0.25780    1.000
    H146     H        0.39020    0.73550    0.27700    1.000
    C211     C        0.46220    0.76300    0.22780    1.000
    H147     H        0.48330    0.80220    0.22590    1.000
    C212     C        0.45590    0.68600    0.20300    1.000
    H148     H        0.47330    0.67280    0.18440    1.000
    I31      I        0.47084    0.49326    0.12816    1.000
    Zn16     Zn       0.41198    0.52573    0.16108    1.000
    I32      I        0.37349    0.41418    0.19662    1.000
    N66      N        0.37880    0.59080    0.10800    1.000
    C213     C        0.34720    0.55100    0.08420    1.000
    H149     H        0.34080    0.49090    0.09060    1.000
    C214     C        0.32410    0.59600    0.05060    1.000
    H150     H        0.30170    0.56720    0.03380    1.000
    C215     C        0.33280    0.68300    0.04080    1.000
    C216     C        0.36550    0.72280    0.06560    1.000
    H151     H        0.37270    0.78250    0.05970    1.000
    C217     C        0.38750    0.67470    0.09890    1.000
    H152     H        0.41000    0.70240    0.11620    1.000
    C218     C        0.30730    0.73780    0.00540    1.000
    N67      N        0.27890    0.69430    0.97800    1.000
    C219     C        0.25990    0.74720    0.94920    1.000
    N68      N        0.26750    0.83580    0.94220    1.000
    C220     C        0.29570    0.86930    0.96910    1.000
    N69      N        0.31870    0.82170    0.00160    1.000
    N70      N        0.16830    0.61750    0.85560    1.000
    C221     C        0.17950    0.70520    0.85070    1.000
    H153     H        0.16570    0.73820    0.82650    1.000
    C222     C        0.20730    0.74470    0.87670    1.000
    H154     H        0.21340    0.80500    0.87070    1.000
    C223     C        0.22870    0.70440    0.91300    1.000
    C224     C        0.21670    0.61440    0.92020    1.000
    H155     H        0.22830    0.58270    0.94580    1.000
    C225     C        0.18860    0.57580    0.88980    1.000
    H156     H        0.18310    0.51400    0.89320    1.000
    N71      N        0.31660    0.15220    0.97520    1.000
    C226     C        0.34140    0.09440    0.99890    1.000
    H157     H        0.36430    0.11750    0.01740    1.000
    C227     C        0.33540    0.00300    0.99780    1.000
    H158     H        0.35380    0.96410    0.01540    1.000
    C228     C        0.30230    0.96860    0.97060    1.000
    C229     C        0.27750    0.02840    0.94610    1.000
    H159     H        0.25530    0.00690    0.92590    1.000
    C230     C        0.28430    0.11930    0.95040    1.000
    H160     H        0.26520    0.15970    0.93500    1.000
    I33      I        0.37442    0.30767    0.05579    1.000
    Zn17     Zn       0.32962    0.28878    0.98157    1.000
    I34      I        0.26751    0.38170    0.95690    1.000
    I35      I        0.14649    0.56453    0.73767    1.000
    Zn18     Zn       0.12562    0.55461    0.80972    1.000
    I36      I        0.10917    0.41061    0.84403    1.000
    N72      N        0.08080    0.64600    0.80730    1.000
    C231     C        0.06910    0.65310    0.84460    1.000
    H161     H        0.08240    0.62490    0.87050    1.000
    C232     C        0.03620    0.70490    0.84250    1.000
    H162     H        0.02730    0.71090    0.86880    1.000
    C233     C        0.01410    0.74900    0.80750    1.000
    C234     C        0.02830    0.73800    0.77060    1.000
    H163     H        0.01530    0.76540    0.74430    1.000
    C235     C        0.06130    0.68690    0.77170    1.000
    H164     H        0.07080    0.68040    0.74580    1.000
    C236     C        0.98010    0.80770    0.80770    1.000
    N73      N        0.96000    0.79160    0.83740    1.000
    C237     C        0.93050    0.84890    0.84070    1.000
    N74      N        0.92280    0.92070    0.81350    1.000
    C238     C        0.94430    0.93410    0.78490    1.000
    N75      N        0.97190    0.87610    0.77930    1.000
    N76      N        0.86070    0.80900    0.93330    1.000
    C239     C        0.85010    0.86200    0.89920    1.000
    H165     H        0.82550    0.89160    0.89620    1.000
    C240     C        0.87100    0.87860    0.86770    1.000
    H166     H        0.86150    0.91780    0.84410    1.000
    C241     C        0.90650    0.83510    0.87240    1.000
    C242     C        0.91830    0.78010    0.90770    1.000
    H167     H        0.94290    0.75020    0.91160    1.000
    C243     C        0.89520    0.76790    0.93740    1.000
    H168     H        0.90400    0.72930    0.96140    1.000
    N77      N        0.92640    0.16480    0.70360    1.000
    C244     C        0.95900    0.11340    0.70720    1.000
    H169     H        0.97790    0.12970    0.69090    1.000
    C245     C        0.96600    0.03910    0.73330    1.000
    H170     H        0.98950    0.00560    0.73470    1.000
    C246     C        0.93880    0.01180    0.75790    1.000
    C247     C        0.90600    0.06550    0.75540    1.000
    H171     H        0.88690    0.05050    0.77170    1.000
    C248     C        0.90110    0.14040    0.72950    1.000
    H172     H        0.87890    0.17750    0.72950    1.000
    N78      N        0.36120    0.99590    0.43250    1.000
    C249     C        0.39620    0.03340    0.43490    1.000
    H173     H        0.40590    0.07230    0.45860    1.000
    C250     C        0.41920    0.01920    0.40530    1.000
    H174     H        0.44400    0.04830    0.40920    1.000
    C251     C        0.34830    0.94270    0.39840    1.000
    H175     H        0.32310    0.91580    0.39450    1.000
    C252     C        0.37150    0.92660    0.36910    1.000
    H176     H        0.36170    0.88600    0.34610    1.000
    C253     C        0.43050    0.94710    0.33780    1.000
    C254     C        0.40740    0.96450    0.37020    1.000
    N79      N        0.81130    0.64100    0.47070    1.000
    C255     C        0.78010    0.67900    0.44510    1.000
    H177     H        0.76130    0.64000    0.42800    1.000
    C256     C        0.77320    0.77000    0.44190    1.000
    H178     H        0.75100    0.79560    0.42320    1.000
    C257     C        0.80170    0.82000    0.46830    1.000
    C258     C        0.83520    0.78800    0.49480    1.000
    H179     H        0.85470    0.82510    0.51170    1.000
    C259     C        0.83780    0.69500    0.49460    1.000
    H180     H        0.86000    0.66830    0.51280    1.000
    C260     C        0.39750    0.66300    0.22120    1.000
    H181     H        0.37290    0.63300    0.21560    1.000
    C261     C        0.40170    0.73900    0.24680    1.000
    H182     H        0.38040    0.76090    0.25830    1.000
    C262     C        0.46790    0.75100    0.23790    1.000
    H183     H        0.49290    0.77970    0.24310    1.000
    C263     C        0.46000    0.67600    0.21250    1.000
    H184     H        0.48050    0.65390    0.19960    1.000
    N80      N        0.36870    0.59630    0.11480    1.000
    C264     C        0.34800    0.55400    0.08010    1.000
    H185     H        0.34810    0.49030    0.08090    1.000
    C265     C        0.32660    0.59400    0.04360    1.000
    H186     H        0.31230    0.56050    0.01970    1.000
    C266     C        0.32790    0.68600    0.04480    1.000
    C267     C        0.34880    0.73170    0.07990    1.000
    H187     H        0.34890    0.79560    0.08000    1.000
    C268     C        0.36960    0.68570    0.11500    1.000
    H188     H        0.38440    0.71730    0.13910    1.000
    N81      N        0.07840    0.62800    0.80720    1.000
    C269     C        0.05400    0.61940    0.83400    1.000
    H189     H        0.05940    0.57220    0.85470    1.000
    C270     C        0.02170    0.67160    0.83470    1.000
    H190     H        0.00600    0.65990    0.85520    1.000
    C271     C        0.01220    0.74100    0.80560    1.000
    C272     C        0.03610    0.75400    0.77660    1.000
    H191     H        0.03080    0.79920    0.75510    1.000
    C273     C        0.06790    0.69700    0.78020    1.000
    H192     H        0.08480    0.70920    0.76080    1.000
    I37      I        0.47378    0.79820    0.62624    1.000
    Zn19     Zn       0.41403    0.76969    0.66018    1.000
    I38      I        0.37891    0.88568    0.69543    1.000
    N82      N        0.37360    0.70440    0.61350    1.000
    C274     C        0.37820    0.61420    0.60640    1.000
    H193     H        0.39800    0.58380    0.62650    1.000
    C275     C        0.35740    0.56420    0.57380    1.000
    H194     H        0.36110    0.50100    0.57280    1.000
    C276     C        0.33000    0.60900    0.54120    1.000
    C277     C        0.32600    0.70280    0.54630    1.000
    H195     H        0.30890    0.73580    0.52440    1.000
    C278     C        0.34690    0.74890    0.58310    1.000
    H196     H        0.34230    0.81110    0.58670    1.000
    C279     C        0.30740    0.55900    0.50460    1.000
    N83      N        0.31660    0.46980    0.50320    1.000
    C280     C        0.29420    0.42390    0.47190    1.000
    N84      N        0.26450    0.46050    0.43910    1.000
    C281     C        0.25970    0.54660    0.44160    1.000
    N85      N        0.27870    0.59840    0.47900    1.000
    N86      N        0.31820    0.14400    0.48250    1.000
    C282     C        0.29080    0.17800    0.45100    1.000
    H197     H        0.27590    0.13820    0.43060    1.000
    C283     C        0.28240    0.26900    0.44600    1.000
    H198     H        0.26220    0.28710    0.42250    1.000
    C284     C        0.30180    0.33400    0.47330    1.000
    C285     C        0.32990    0.29700    0.50550    1.000
    H199     H        0.34490    0.33580    0.52650    1.000
    C286     C        0.33730    0.20600    0.50910    1.000
    H200     H        0.35750    0.18650    0.53230    1.000
    I39      I        0.37796    0.98806    0.55469    1.000
    Zn20     Zn       0.33054    0.00697    0.48138    1.000
    I40      I        0.27036    0.91019    0.45887    1.000
    N87      N        0.16930    0.68070    0.35450    1.000
    C287     C        0.19050    0.72630    0.38840    1.000
    H201     H        0.18430    0.78730    0.39290    1.000
    C288     C        0.22120    0.68510    0.41650    1.000
    H202     H        0.23850    0.72040    0.43730    1.000
    C289     C        0.22690    0.59330    0.41500    1.000
    C290     C        0.20540    0.54570    0.37960    1.000
    H203     H        0.21010    0.48390    0.37500    1.000
    C291     C        0.17540    0.59720    0.35030    1.000
    H204     H        0.15940    0.56640    0.32670    1.000
    I41      I        0.10997    0.88438    0.34421    1.000
    Zn21     Zn       0.12662    0.74171    0.30896    1.000
    I42      I        0.14783    0.73458    0.23756    1.000
    N88      N        0.07820    0.65430    0.30500    1.000
    C292     C        0.06310    0.61130    0.27170    1.000
    H205     H        0.07330    0.61780    0.24630    1.000
    C293     C        0.03050    0.55200    0.27170    1.000
    H206     H        0.02000    0.51780    0.24650    1.000
    C294     C        0.01460    0.54440    0.30640    1.000
    C295     C        0.03360    0.58550    0.34500    1.000
    H207     H        0.02640    0.57510    0.37200    1.000
    C296     C        0.06430    0.64400    0.33990    1.000
    H208     H        0.07610    0.67910    0.36430    1.000
    C297     C        0.97880    0.48930    0.30720    1.000
    N89      N        0.97450    0.42180    0.27850    1.000
    C298     C        0.94530    0.36690    0.28410    1.000
    N90      N        0.92210    0.37410    0.31300    1.000
    N91      N        0.96020    0.50410    0.33930    1.000
    N92      N        0.92630    0.13030    0.20410    1.000
    C299     C        0.93750    0.28220    0.25520    1.000
    C300     C        0.90320    0.15000    0.23140    1.000
    H209     H        0.88220    0.11020    0.23280    1.000
    C301     C        0.90740    0.22460    0.25780    1.000
    H210     H        0.89020    0.23550    0.27700    1.000
    C302     C        0.96220    0.26300    0.22780    1.000
    H211     H        0.98330    0.30220    0.22590    1.000
    C303     C        0.95590    0.18600    0.20300    1.000
    H212     H        0.97330    0.17280    0.18440    1.000
    I43      I        0.97084    0.99326    0.12816    1.000
    Zn22     Zn       0.91198    0.02573    0.16108    1.000
    I44      I        0.87349    0.91418    0.19662    1.000
    N93      N        0.87880    0.09080    0.10800    1.000
    C304     C        0.84720    0.05100    0.08420    1.000
    H213     H        0.84080    0.99090    0.09060    1.000
    C305     C        0.82410    0.09600    0.05060    1.000
    H214     H        0.80170    0.06720    0.03380    1.000
    C306     C        0.83280    0.18300    0.04080    1.000
    C307     C        0.86550    0.22280    0.06560    1.000
    H215     H        0.87270    0.28250    0.05970    1.000
    C308     C        0.88750    0.17470    0.09890    1.000
    H216     H        0.91000    0.20240    0.11620    1.000
    C309     C        0.80730    0.23780    0.00540    1.000
    N94      N        0.77890    0.19430    0.97800    1.000
    C310     C        0.75990    0.24720    0.94920    1.000
    N95      N        0.76750    0.33580    0.94220    1.000
    C311     C        0.79570    0.36930    0.96910    1.000
    N96      N        0.81870    0.32170    0.00160    1.000
    N97      N        0.66830    0.11750    0.85560    1.000
    C312     C        0.67950    0.20520    0.85070    1.000
    H217     H        0.66570    0.23820    0.82650    1.000
    C313     C        0.70730    0.24470    0.87670    1.000
    H218     H        0.71340    0.30500    0.87070    1.000
    C314     C        0.72870    0.20440    0.91300    1.000
    C315     C        0.71670    0.11440    0.92020    1.000
    H219     H        0.72830    0.08270    0.94580    1.000
    C316     C        0.68860    0.07580    0.88980    1.000
    H220     H        0.68310    0.01400    0.89320    1.000
    N98      N        0.81660    0.65220    0.97520    1.000
    C317     C        0.84140    0.59440    0.99890    1.000
    H221     H        0.86430    0.61750    0.01740    1.000
    C318     C        0.83540    0.50300    0.99780    1.000
    H222     H        0.85380    0.46410    0.01540    1.000
    C319     C        0.80230    0.46860    0.97060    1.000
    C320     C        0.77750    0.52840    0.94610    1.000
    H223     H        0.75530    0.50690    0.92590    1.000
    C321     C        0.78430    0.61930    0.95040    1.000
    H224     H        0.76520    0.65970    0.93500    1.000
    I45      I        0.87442    0.80767    0.05579    1.000
    Zn23     Zn       0.82962    0.78878    0.98157    1.000
    I46      I        0.76751    0.88170    0.95690    1.000
    I47      I        0.64649    0.06453    0.73767    1.000
    Zn24     Zn       0.62562    0.05461    0.80972    1.000
    I48      I        0.60917    0.91061    0.84403    1.000
    N99      N        0.58080    0.14600    0.80730    1.000
    C322     C        0.56910    0.15310    0.84460    1.000
    H225     H        0.58240    0.12490    0.87050    1.000
    C323     C        0.53620    0.20490    0.84250    1.000
    H226     H        0.52730    0.21090    0.86880    1.000
    C324     C        0.51410    0.24900    0.80750    1.000
    C325     C        0.52830    0.23800    0.77060    1.000
    H227     H        0.51530    0.26540    0.74430    1.000
    C326     C        0.56130    0.18690    0.77170    1.000
    H228     H        0.57080    0.18040    0.74580    1.000
    C327     C        0.48010    0.30770    0.80770    1.000
    N100     N        0.46000    0.29160    0.83740    1.000
    C328     C        0.43050    0.34890    0.84070    1.000
    N101     N        0.42280    0.42070    0.81350    1.000
    C329     C        0.44430    0.43410    0.78490    1.000
    N102     N        0.47190    0.37610    0.77930    1.000
    N103     N        0.36070    0.30900    0.93330    1.000
    C330     C        0.35010    0.36200    0.89920    1.000
    H229     H        0.32550    0.39160    0.89620    1.000
    C331     C        0.37100    0.37860    0.86770    1.000
    H230     H        0.36150    0.41780    0.84410    1.000
    C332     C        0.40650    0.33510    0.87240    1.000
    C333     C        0.41830    0.28010    0.90770    1.000
    H231     H        0.44290    0.25020    0.91160    1.000
    C334     C        0.39520    0.26790    0.93740    1.000
    H232     H        0.40400    0.22930    0.96140    1.000
    N104     N        0.42640    0.66480    0.70360    1.000
    C335     C        0.45900    0.61340    0.70720    1.000
    H233     H        0.47790    0.62970    0.69090    1.000
    C336     C        0.46600    0.53910    0.73330    1.000
    H234     H        0.48950    0.50560    0.73470    1.000
    C337     C        0.43880    0.51180    0.75790    1.000
    C338     C        0.40600    0.56550    0.75540    1.000
    H235     H        0.38690    0.55050    0.77170    1.000
    C339     C        0.40110    0.64040    0.72950    1.000
    H236     H        0.37890    0.67750    0.72950    1.000
    N105     N        0.86120    0.49590    0.43250    1.000
    C340     C        0.89620    0.53340    0.43490    1.000
    H237     H        0.90590    0.57230    0.45860    1.000
    C341     C        0.91920    0.51920    0.40530    1.000
    H238     H        0.94400    0.54830    0.40920    1.000
    C342     C        0.84830    0.44270    0.39840    1.000
    H239     H        0.82310    0.41580    0.39450    1.000
    C343     C        0.87150    0.42660    0.36910    1.000
    H240     H        0.86170    0.38600    0.34610    1.000
    C344     C        0.93050    0.44710    0.33780    1.000
    C345     C        0.90740    0.46450    0.37020    1.000
    N106     N        0.31130    0.14100    0.47070    1.000
    C346     C        0.28010    0.17900    0.44510    1.000
    H241     H        0.26130    0.14000    0.42800    1.000
    C347     C        0.27320    0.27000    0.44190    1.000
    H242     H        0.25100    0.29560    0.42320    1.000
    C348     C        0.30170    0.32000    0.46830    1.000
    C349     C        0.33520    0.28800    0.49480    1.000
    H243     H        0.35470    0.32510    0.51170    1.000
    C350     C        0.33780    0.19500    0.49460    1.000
    H244     H        0.36000    0.16830    0.51280    1.000
    C351     C        0.89750    0.16300    0.22120    1.000
    H245     H        0.87290    0.13300    0.21560    1.000
    C352     C        0.90170    0.23900    0.24680    1.000
    H246     H        0.88040    0.26090    0.25830    1.000
    C353     C        0.96790    0.25100    0.23790    1.000
    H247     H        0.99290    0.27970    0.24310    1.000
    C354     C        0.96000    0.17600    0.21250    1.000
    H248     H        0.98050    0.15390    0.19960    1.000
    N107     N        0.86870    0.09630    0.11480    1.000
    C355     C        0.84800    0.05400    0.08010    1.000
    H249     H        0.84810    0.99030    0.08090    1.000
    C356     C        0.82660    0.09400    0.04360    1.000
    H250     H        0.81230    0.06050    0.01970    1.000
    C357     C        0.82790    0.18600    0.04480    1.000
    C358     C        0.84880    0.23170    0.07990    1.000
    H251     H        0.84890    0.29560    0.08000    1.000
    C359     C        0.86960    0.18570    0.11500    1.000
    H252     H        0.88440    0.21730    0.13910    1.000
    N108     N        0.57840    0.12800    0.80720    1.000
    C360     C        0.55400    0.11940    0.83400    1.000
    H253     H        0.55940    0.07220    0.85470    1.000
    C361     C        0.52170    0.17160    0.83470    1.000
    H254     H        0.50600    0.15990    0.85520    1.000
    C362     C        0.51220    0.24100    0.80560    1.000
    C363     C        0.53610    0.25400    0.77660    1.000
    H255     H        0.53080    0.29920    0.75510    1.000
    C364     C        0.56790    0.19700    0.78020    1.000
    H256     H        0.58480    0.20920    0.76080    1.000
