# CIF file generated by openbabel 3.1.0, see https://openbabel.org
data_I
_chemical_name_common 'RICBEM_clean'
_cell_length_a 13.781
_cell_length_b 25.0369
_cell_length_c 25.0369
_cell_angle_alpha 73.2333
_cell_angle_beta 74.0252
_cell_angle_gamma 74.0251
_space_group_name_H-M_alt 'P 1'
_space_group_name_Hall 'P 1'
loop_
    _symmetry_equiv_pos_as_xyz
    x,y,z
loop_
    _atom_site_label
    _atom_site_type_symbol
    _atom_site_fract_x
    _atom_site_fract_y
    _atom_site_fract_z
    _atom_site_occupancy
    Cu1      Cu       0.55862    0.12118    0.91814    1.000
    Cu2      Cu       0.44138    0.08186    0.87882    1.000
    Cu3      Cu       0.90206    0.62118    0.41814    1.000
    Cu4      Cu       0.09794    0.58186    0.37882    1.000
    H1       H        0.60070    0.10350    0.70030    1.000
    H2       H        0.08680    0.40770    0.39650    1.000
    H3       H        0.84050    0.21700    0.66760    1.000
    H4       H        0.76430    0.17880    0.76060    1.000
    H5       H        0.96920    0.24710    0.41750    1.000
    H6       H        0.70380    0.13340    0.61340    1.000
    H7       H        0.77810    0.36710    0.51190    1.000
    H8       H        0.07320    0.30990    0.42590    1.000
    H9       H        0.66280    0.16490    0.41030    1.000
    H10      H        0.81900    0.21520    0.39740    1.000
    H11      H        0.83520    0.27470    0.57590    1.000
    H12      H        0.85310    0.12620    0.54260    1.000
    H13      H        0.80620    0.46010    0.49190    1.000
    H14      H        0.07790    0.09970    0.52270    1.000
    H15      H        0.21830    0.03470    0.52790    1.000
    H16      H        0.39930    0.29970    0.89650    1.000
    H17      H        0.91320    0.60350    0.59230    1.000
    H18      H        0.15950    0.33240    0.78300    1.000
    H19      H        0.23570    0.23940    0.82120    1.000
    H20      H        0.03080    0.58250    0.75290    1.000
    H21      H        0.29620    0.38660    0.86660    1.000
    H22      H        0.22190    0.48810    0.63290    1.000
    H23      H        0.92680    0.57410    0.69010    1.000
    H24      H        0.33720    0.58970    0.83510    1.000
    H25      H        0.18100    0.60260    0.78480    1.000
    H26      H        0.16480    0.42410    0.72530    1.000
    H27      H        0.14690    0.45740    0.87380    1.000
    H28      H        0.19380    0.50810    0.53990    1.000
    H29      H        0.92210    0.47730    0.90030    1.000
    H30      H        0.78170    0.47210    0.96530    1.000
    H31      H        0.09550    0.60350    0.20030    1.000
    H32      H        0.60900    0.90770    0.89650    1.000
    H33      H        0.77490    0.71700    0.16760    1.000
    H34      H        0.79630    0.67880    0.26060    1.000
    H35      H        0.86620    0.74710    0.91750    1.000
    H36      H        0.04940    0.63340    0.11340    1.000
    H37      H        0.84290    0.86710    0.01190    1.000
    H38      H        0.69100    0.80990    0.92590    1.000
    H39      H        0.26200    0.66490    0.91030    1.000
    H40      H        0.06840    0.71520    0.89740    1.000
    H41      H        0.81420    0.77470    0.07590    1.000
    H42      H        0.97810    0.62620    0.04260    1.000
    H43      H        0.74180    0.96010    0.99190    1.000
    H44      H        0.79970    0.59970    0.02270    1.000
    H45      H        0.71910    0.53470    0.02790    1.000
    H46      H        0.90450    0.79970    0.39650    1.000
    H47      H        0.39100    0.10350    0.09230    1.000
    H48      H        0.22510    0.83240    0.28300    1.000
    H49      H        0.20370    0.73940    0.32120    1.000
    H50      H        0.13380    0.08250    0.25290    1.000
    H51      H        0.95060    0.88660    0.36660    1.000
    H52      H        0.15710    0.98810    0.13290    1.000
    H53      H        0.30900    0.07410    0.19010    1.000
    H54      H        0.73800    0.08970    0.33510    1.000
    H55      H        0.93160    0.10260    0.28480    1.000
    H56      H        0.18580    0.92410    0.22530    1.000
    H57      H        0.02190    0.95740    0.37380    1.000
    H58      H        0.25820    0.00810    0.03990    1.000
    H59      H        0.20030    0.97730    0.40030    1.000
    H60      H        0.28090    0.97210    0.46530    1.000
    C1       C        0.97210    0.50030    0.42110    1.000
    C2       C        0.65090    0.12370    0.69570    1.000
    C3       C        0.67100    0.14060    0.73980    1.000
    C4       C        0.95010    0.44230    0.43930    1.000
    C5       C        0.02700    0.39820    0.42140    1.000
    C6       C        0.80200    0.18980    0.67400    1.000
    C7       C        0.74860    0.17110    0.73010    1.000
    C8       C        0.93890    0.23340    0.45540    1.000
    C9       C        0.71790    0.14190    0.64390    1.000
    C10      C        0.96803    0.13667    0.43787    1.000
    C11      C        0.84200    0.37540    0.49220    1.000
    C12      C        0.02160    0.33930    0.43830    1.000
    C13      C        0.73100    0.15490    0.39130    1.000
    C14      C        0.84100    0.19440    0.57040    1.000
    C15      C        0.91920    0.26690    0.49630    1.000
    C16      C        0.92140    0.14320    0.39560    1.000
    C17      C        0.06840    0.09620    0.45120    1.000
    C18      C        0.61200    0.12670    0.80430    1.000
    C19      C        0.82850    0.17750    0.39530    1.000
    C20      C        0.86064    0.24956    0.55176    1.000
    C21      C        0.80170    0.17000    0.62660    1.000
    C22      C        0.86680    0.16260    0.53060    1.000
    C23      C        0.92570    0.33190    0.47690    1.000
    C24      C        0.85610    0.43120    0.47740    1.000
    C25      C        0.91312    0.18098    0.47198    1.000
    C26      C        0.10710    0.08070    0.49330    1.000
    C27      C        0.18490    0.04000    0.49860    1.000
    C28      C        0.02790    0.57890    0.49970    1.000
    C29      C        0.34910    0.30430    0.87630    1.000
    C30      C        0.32900    0.26020    0.85940    1.000
    C31      C        0.04990    0.56070    0.55770    1.000
    C32      C        0.97300    0.57860    0.60180    1.000
    C33      C        0.19800    0.32600    0.81020    1.000
    C34      C        0.25140    0.26990    0.82890    1.000
    C35      C        0.06110    0.54460    0.76660    1.000
    C36      C        0.28210    0.35610    0.85810    1.000
    C37      C        0.03197    0.56213    0.86333    1.000
    C38      C        0.15800    0.50780    0.62460    1.000
    C39      C        0.97840    0.56170    0.66070    1.000
    C40      C        0.26900    0.60870    0.84510    1.000
    C41      C        0.15900    0.42960    0.80560    1.000
    C42      C        0.08080    0.50370    0.73310    1.000
    C43      C        0.07860    0.60440    0.85680    1.000
    C44      C        0.93160    0.54880    0.90380    1.000
    C45      C        0.38800    0.19570    0.87330    1.000
    C46      C        0.17150    0.60470    0.82250    1.000
    C47      C        0.13936    0.44824    0.75044    1.000
    C48      C        0.19830    0.37340    0.83000    1.000
    C49      C        0.13320    0.46940    0.83740    1.000
    C50      C        0.07430    0.52310    0.66810    1.000
    C51      C        0.14390    0.52260    0.56880    1.000
    C52      C        0.08688    0.52802    0.81902    1.000
    C53      C        0.89290    0.50670    0.91930    1.000
    C54      C        0.81510    0.50140    0.96000    1.000
    C55      C        0.60650    0.00030    0.92110    1.000
    C56      C        0.02970    0.62370    0.19570    1.000
    C57      C        0.94860    0.64060    0.23980    1.000
    C58      C        0.66830    0.94230    0.93930    1.000
    C59      C        0.65340    0.89820    0.92140    1.000
    C60      C        0.83420    0.68980    0.17400    1.000
    C61      C        0.85020    0.67110    0.23010    1.000
    C62      C        0.87230    0.73340    0.95540    1.000
    C63      C        0.99630    0.64190    0.14390    1.000
    C64      C        0.95743    0.63667    0.93787    1.000
    C65      C        0.79040    0.87540    0.99220    1.000
    C66      C        0.70080    0.83930    0.93830    1.000
    C67      C        0.22280    0.65490    0.89130    1.000
    C68      C        0.89420    0.69440    0.07040    1.000
    C69      C        0.81760    0.76690    0.99630    1.000
    C70      C        0.03980    0.64320    0.89560    1.000
    C71      C        0.88420    0.59620    0.95120    1.000
    C72      C        0.95700    0.62670    0.30430    1.000
    C73      C        0.09870    0.67750    0.89530    1.000
    C74      C        0.83804    0.74956    0.05176    1.000
    C75      C        0.90170    0.67000    0.12660    1.000
    C76      C        0.94000    0.66260    0.03060    1.000
    C77      C        0.76550    0.83190    0.97690    1.000
    C78      C        0.73530    0.93120    0.97740    1.000
    C79      C        0.93392    0.68098    0.97198    1.000
    C80      C        0.81890    0.58070    0.99330    1.000
    C81      C        0.77650    0.54000    0.99860    1.000
    C82      C        0.39350    0.07890    0.99970    1.000
    C83      C        0.97030    0.80430    0.37630    1.000
    C84      C        0.05140    0.76020    0.35940    1.000
    C85      C        0.33170    0.06070    0.05770    1.000
    C86      C        0.34660    0.07860    0.10180    1.000
    C87      C        0.16580    0.82600    0.31020    1.000
    C88      C        0.14980    0.76990    0.32890    1.000
    C89      C        0.12770    0.04460    0.26660    1.000
    C90      C        0.00370    0.85610    0.35810    1.000
    C91      C        0.04257    0.06213    0.36333    1.000
    C92      C        0.20960    0.00780    0.12460    1.000
    C93      C        0.29920    0.06170    0.16070    1.000
    C94      C        0.77720    0.10870    0.34510    1.000
    C95      C        0.10580    0.92960    0.30560    1.000
    C96      C        0.18240    0.00370    0.23310    1.000
    C97      C        0.96020    0.10440    0.35680    1.000
    C98      C        0.11580    0.04880    0.40380    1.000
    C99      C        0.04300    0.69570    0.37330    1.000
    C100     C        0.90130    0.10470    0.32250    1.000
    C101     C        0.16196    0.94824    0.25044    1.000
    C102     C        0.09830    0.87340    0.33000    1.000
    C103     C        0.06000    0.96940    0.33740    1.000
    C104     C        0.23450    0.02310    0.16810    1.000
    C105     C        0.26470    0.02260    0.06880    1.000
    C106     C        0.06608    0.02802    0.31902    1.000
    C107     C        0.18110    0.00670    0.41930    1.000
    C108     C        0.22350    0.00140    0.46000    1.000
    O1       O        0.05663    0.50624    0.39770    1.000
    O2       O        0.53332    0.10138    0.80798    1.000
    O3       O        0.64284    0.13499    0.84073    1.000
    O4       O        0.89518    0.54027    0.43157    1.000
    O5       O        0.94337    0.60230    0.49376    1.000
    O6       O        0.46668    0.19202    0.89862    1.000
    O7       O        0.35716    0.15927    0.86501    1.000
    O8       O        0.10482    0.56843    0.45973    1.000
    O9       O        0.53943    0.00624    0.89770    1.000
    O10      O        0.05732    0.60138    0.30798    1.000
    O11      O        0.88144    0.63499    0.34073    1.000
    O12      O        0.63298    0.04027    0.93157    1.000
    O13      O        0.46057    0.10230    0.99376    1.000
    O14      O        0.94268    0.69202    0.39862    1.000
    O15      O        0.11856    0.65927    0.36501    1.000
    O16      O        0.36702    0.06843    0.95973    1.000
