# CIF file generated by openbabel 3.1.0, see https://openbabel.org
data_I
_chemical_name_common 'XEHFUL01_clean'
_cell_length_a 7.8177
_cell_length_b 8.4322
_cell_length_c 9.4845
_cell_angle_alpha 90
_cell_angle_beta 90
_cell_angle_gamma 117.617
_space_group_name_H-M_alt 'P 1'
_space_group_name_Hall 'P 1'
loop_
    _symmetry_equiv_pos_as_xyz
    x,y,z
loop_
    _atom_site_label
    _atom_site_type_symbol
    _atom_site_fract_x
    _atom_site_fract_y
    _atom_site_fract_z
    _atom_site_occupancy
    Y1       Y        0.70680    0.41360    0.75000    1.000
    Y2       Y        0.29260    0.58520    0.75000    1.000
    Y3       Y        0.29320    0.58640    0.25000    1.000
    Y4       Y        0.70740    0.41480    0.25000    1.000
    C1       C        0.59300    0.98600    0.74700    1.000
    C2       C        0.08300    0.55000    0.49700    1.000
    C3       C        0.40700    0.01400    0.24700    1.000
    C4       C        0.91700    0.45000    0.99700    1.000
    C5       C        0.39300    0.98600    0.75300    1.000
    C6       C        0.46700    0.55000    0.00300    1.000
    C7       C        0.60700    0.01400    0.25300    1.000
    C8       C        0.53300    0.45000    0.50300    1.000
    O1       O        0.74000    0.14200    0.75400    1.000
    O2       O        0.58450    0.83700    0.71700    1.000
    O3       O        0.99000    0.47400    0.61300    1.000
    O4       O        0.26510    0.62980    0.49500    1.000
    O5       O        0.99300    0.52600    0.37700    1.000
    O6       O        0.26000    0.85800    0.25400    1.000
    O7       O        0.41550    0.16300    0.21700    1.000
    O8       O        0.01000    0.52600    0.11300    1.000
    O9       O        0.73490    0.37020    0.99500    1.000
    O10      O        0.00700    0.47400    0.87700    1.000
    O11      O        0.40200    0.14200    0.74600    1.000
    O12      O        0.25250    0.83700    0.78300    1.000
    O13      O        0.48400    0.47400    0.88700    1.000
    O14      O        0.36470    0.62980    0.00500    1.000
    O15      O        0.53300    0.52600    0.12300    1.000
    O16      O        0.59800    0.85800    0.24600    1.000
    O17      O        0.74750    0.16300    0.28300    1.000
    O18      O        0.51600    0.52600    0.38700    1.000
    O19      O        0.63530    0.37020    0.50500    1.000
    O20      O        0.46700    0.47400    0.62300    1.000
