# CIF file generated by openbabel 3.1.0, see https://openbabel.org
data_I
_chemical_name_common 'image0'
_cell_length_a 14.796
_cell_length_b 12.4275
_cell_length_c 16.6266
_cell_angle_alpha 90
_cell_angle_beta 90
_cell_angle_gamma 90
_space_group_name_H-M_alt 'P 1'
_space_group_name_Hall 'P 1'
loop_
    _symmetry_equiv_pos_as_xyz
    x,y,z
loop_
    _atom_site_label
    _atom_site_type_symbol
    _atom_site_fract_x
    _atom_site_fract_y
    _atom_site_fract_z
    _atom_site_occupancy
    O1       O        0.52558    0.11980    0.00406    1.000
    O2       O        0.50140    0.08250    0.87482    1.000
    C1       C        0.76910    0.42360    0.99670    1.000
    O3       O        0.59450    0.34920    0.66820    1.000
    C2       C        0.59640    0.23020    0.90550    1.000
    C3       C        0.59330    0.26930    0.82700    1.000
    H1       H        0.55720    0.23310    0.78820    1.000
    C4       C        0.63690    0.40050    0.71910    1.000
    O4       O        0.67250    0.48990    0.70368    1.000
    C5       C        0.70350    0.37060    0.93880    1.000
    C6       C        0.65260    0.28070    0.96100    1.000
    H2       H        0.65640    0.25380    0.01440    1.000
    C7       C        0.64180    0.36010    0.80420    1.000
    C8       C        0.69510    0.41150    0.86110    1.000
    H3       H        0.72620    0.47560    0.84690    1.000
    C9       C        0.53800    0.13750    0.92980    1.000
    O5       O        0.79110    0.51720    0.98600    1.000
    O6       O        0.80160    0.36740    0.05218    1.000
    Mn1      Mn       0.60452    0.48381    0.57981    1.000
    O7       O        0.97442    0.88020    0.50406    1.000
    O8       O        0.99860    0.91750    0.37482    1.000
    C10      C        0.73090    0.57640    0.49670    1.000
    O9       O        0.90550    0.65080    0.16820    1.000
    C11      C        0.90360    0.76980    0.40550    1.000
    C12      C        0.90670    0.73070    0.32700    1.000
    H4       H        0.94280    0.76690    0.28820    1.000
    C13      C        0.86310    0.59950    0.21910    1.000
    O10      O        0.82750    0.51010    0.20368    1.000
    C14      C        0.79650    0.62940    0.43880    1.000
    C15      C        0.84740    0.71930    0.46100    1.000
    H5       H        0.84360    0.74620    0.51440    1.000
    C16      C        0.85820    0.63990    0.30420    1.000
    C17      C        0.80490    0.58850    0.36110    1.000
    H6       H        0.77380    0.52440    0.34690    1.000
    C18      C        0.96200    0.86250    0.42980    1.000
    O11      O        0.70890    0.48280    0.48600    1.000
    O12      O        0.69840    0.63260    0.55218    1.000
    Mn2      Mn       0.89548    0.51619    0.07981    1.000
    O13      O        0.47442    0.61980    0.49594    1.000
    O14      O        0.49860    0.58250    0.62518    1.000
    C19      C        0.23090    0.92360    0.50330    1.000
    O15      O        0.40550    0.84920    0.83180    1.000
    C20      C        0.40360    0.73020    0.59450    1.000
    C21      C        0.40670    0.76930    0.67300    1.000
    H7       H        0.44280    0.73310    0.71180    1.000
    C22      C        0.36310    0.90050    0.78090    1.000
    O16      O        0.32750    0.98990    0.79632    1.000
    C23      C        0.29650    0.87060    0.56120    1.000
    C24      C        0.34740    0.78070    0.53900    1.000
    H8       H        0.34360    0.75380    0.48560    1.000
    C25      C        0.35820    0.86010    0.69580    1.000
    C26      C        0.30490    0.91150    0.63890    1.000
    H9       H        0.27380    0.97560    0.65310    1.000
    C27      C        0.46200    0.63750    0.57020    1.000
    O17      O        0.20890    0.01720    0.51400    1.000
    O18      O        0.19840    0.86740    0.44782    1.000
    Mn3      Mn       0.39548    0.98381    0.92019    1.000
    O19      O        0.02558    0.38020    0.99594    1.000
    O20      O        0.00140    0.41750    0.12518    1.000
    C28      C        0.26910    0.07640    0.00330    1.000
    O21      O        0.09450    0.15080    0.33180    1.000
    C29      C        0.09640    0.26980    0.09450    1.000
    C30      C        0.09330    0.23070    0.17300    1.000
    H10      H        0.05720    0.26690    0.21180    1.000
    C31      C        0.13690    0.09950    0.28090    1.000
    O22      O        0.17250    0.01010    0.29632    1.000
    C32      C        0.20350    0.12940    0.06120    1.000
    C33      C        0.15260    0.21930    0.03900    1.000
    H11      H        0.15640    0.24620    0.98560    1.000
    C34      C        0.14180    0.13990    0.19580    1.000
    C35      C        0.19510    0.08850    0.13890    1.000
    H12      H        0.22620    0.02440    0.15310    1.000
    C36      C        0.03800    0.36250    0.07020    1.000
    O23      O        0.29110    0.98280    0.01400    1.000
    O24      O        0.30160    0.13260    0.94782    1.000
    Mn4      Mn       0.10452    0.01619    0.42019    1.000
    O25      O        0.47442    0.88020    0.99594    1.000
    O26      O        0.49860    0.91750    0.12518    1.000
    C37      C        0.23090    0.57640    0.00330    1.000
    O27      O        0.40550    0.65080    0.33180    1.000
    C38      C        0.40360    0.76980    0.09450    1.000
    C39      C        0.40670    0.73070    0.17300    1.000
    H13      H        0.44280    0.76690    0.21180    1.000
    C40      C        0.36310    0.59950    0.28090    1.000
    O28      O        0.32750    0.51010    0.29632    1.000
    C41      C        0.29650    0.62940    0.06120    1.000
    C42      C        0.34740    0.71930    0.03900    1.000
    H14      H        0.34360    0.74620    0.98560    1.000
    C43      C        0.35820    0.63990    0.19580    1.000
    C44      C        0.30490    0.58850    0.13890    1.000
    H15      H        0.27380    0.52440    0.15310    1.000
    C45      C        0.46200    0.86250    0.07020    1.000
    O29      O        0.20890    0.48280    0.01400    1.000
    O30      O        0.19840    0.63260    0.94782    1.000
    Mn5      Mn       0.39548    0.51619    0.42019    1.000
    O31      O        0.02558    0.11980    0.49594    1.000
    O32      O        0.00140    0.08250    0.62518    1.000
    C46      C        0.26910    0.42360    0.50330    1.000
    O33      O        0.09450    0.34920    0.83180    1.000
    C47      C        0.09640    0.23020    0.59450    1.000
    C48      C        0.09330    0.26930    0.67300    1.000
    H16      H        0.05720    0.23310    0.71180    1.000
    C49      C        0.13690    0.40050    0.78090    1.000
    O34      O        0.17250    0.48990    0.79632    1.000
    C50      C        0.20350    0.37060    0.56120    1.000
    C51      C        0.15260    0.28070    0.53900    1.000
    H17      H        0.15640    0.25380    0.48560    1.000
    C52      C        0.14180    0.36010    0.69580    1.000
    C53      C        0.19510    0.41150    0.63890    1.000
    H18      H        0.22620    0.47560    0.65310    1.000
    C54      C        0.03800    0.13750    0.57020    1.000
    O35      O        0.29110    0.51720    0.51400    1.000
    O36      O        0.30160    0.36740    0.44782    1.000
    Mn6      Mn       0.10452    0.48381    0.92019    1.000
    O37      O        0.52558    0.38020    0.50406    1.000
    O38      O        0.50140    0.41750    0.37482    1.000
    C55      C        0.76910    0.07640    0.49670    1.000
    O39      O        0.59450    0.15080    0.16820    1.000
    C56      C        0.59640    0.26980    0.40550    1.000
    C57      C        0.59330    0.23070    0.32700    1.000
    H19      H        0.55720    0.26690    0.28820    1.000
    C58      C        0.63690    0.09950    0.21910    1.000
    O40      O        0.67250    0.01010    0.20368    1.000
    C59      C        0.70350    0.12940    0.43880    1.000
    C60      C        0.65260    0.21930    0.46100    1.000
    H20      H        0.65640    0.24620    0.51440    1.000
    C61      C        0.64180    0.13990    0.30420    1.000
    C62      C        0.69510    0.08850    0.36110    1.000
    H21      H        0.72620    0.02440    0.34690    1.000
    C63      C        0.53800    0.36250    0.42980    1.000
    O41      O        0.79110    0.98280    0.48600    1.000
    O42      O        0.80160    0.13260    0.55218    1.000
    Mn7      Mn       0.60452    0.01619    0.07981    1.000
    O43      O        0.97442    0.61980    0.00406    1.000
    O44      O        0.99860    0.58250    0.87482    1.000
    C64      C        0.73090    0.92360    0.99670    1.000
    O45      O        0.90550    0.84920    0.66820    1.000
    C65      C        0.90360    0.73020    0.90550    1.000
    C66      C        0.90670    0.76930    0.82700    1.000
    H22      H        0.94280    0.73310    0.78820    1.000
    C67      C        0.86310    0.90050    0.71910    1.000
    O46      O        0.82750    0.98990    0.70368    1.000
    C68      C        0.79650    0.87060    0.93880    1.000
    C69      C        0.84740    0.78070    0.96100    1.000
    H23      H        0.84360    0.75380    0.01440    1.000
    C70      C        0.85820    0.86010    0.80420    1.000
    C71      C        0.80490    0.91150    0.86110    1.000
    H24      H        0.77380    0.97560    0.84690    1.000
    C72      C        0.96200    0.63750    0.92980    1.000
    O47      O        0.70890    0.01720    0.98600    1.000
    O48      O        0.69840    0.86740    0.05218    1.000
    Mn8      Mn       0.89548    0.98381    0.57981    1.000
