# CIF file generated by openbabel 3.1.0, see https://openbabel.org
data_I
_chemical_name_common 'image0'
_cell_length_a 25.107
_cell_length_b 25.107
_cell_length_c 23.531
_cell_angle_alpha 90
_cell_angle_beta 90
_cell_angle_gamma 90
_space_group_name_H-M_alt 'P 1'
_space_group_name_Hall 'P 1'
loop_
    _symmetry_equiv_pos_as_xyz
    x,y,z
loop_
    _atom_site_label
    _atom_site_type_symbol
    _atom_site_fract_x
    _atom_site_fract_y
    _atom_site_fract_z
    _atom_site_occupancy
    C1       C        0.13730    0.20860    0.78630    1.000
    C2       C        0.27200    0.99300    0.83440    1.000
    H1       H        0.29200    0.00040    0.86880    1.000
    H2       H        0.29610    0.98810    0.80250    1.000
    C3       C        0.25880    0.89690    0.85270    1.000
    H3       H        0.26670    0.89430    0.89300    1.000
    H4       H        0.29200    0.89990    0.83200    1.000
    C4       C        0.22800    0.84800    0.83310    1.000
    H5       H        0.24180    0.81600    0.85100    1.000
    H6       H        0.19050    0.85130    0.84250    1.000
    C5       C        0.20730    0.84430    0.59770    1.000
    H7       H        0.16950    0.84370    0.58900    1.000
    H8       H        0.22330    0.81200    0.58310    1.000
    C6       C        0.02629    0.57030    0.57020    1.000
    C7       C        0.14910    0.67370    0.79170    1.000
    C8       C        0.09430    0.66860    0.81030    1.000
    H9       H        0.06950    0.69470    0.80090    1.000
    C9       C        0.07920    0.62520    0.84190    1.000
    H10      H        0.04380    0.62140    0.85260    1.000
    C10      C        0.11530    0.58760    0.85770    1.000
    C11      C        0.16740    0.59200    0.84090    1.000
    H11      H        0.19190    0.56590    0.85140    1.000
    C12      C        0.18390    0.63460    0.80840    1.000
    H12      H        0.21940    0.63700    0.79760    1.000
    C13      C        0.09700    0.54030    0.89290    1.000
    O1       O        0.13279    0.37601    0.89894    1.000
    O2       O        0.04600    0.35973    0.88376    1.000
    O3       O        0.22660    0.94100    0.84220    1.000
    O4       O        0.97697    0.57244    0.57921    1.000
    O5       O        0.04744    0.53977    0.53381    1.000
    O6       O        0.13318    0.50637    0.90592    1.000
    O7       O        0.05035    0.53779    0.90640    1.000
    C14      C        0.09500    0.34880    0.87910    1.000
    C15      C        0.10840    0.29790    0.84730    1.000
    C16      C        0.15940    0.27860    0.85120    1.000
    H13      H        0.18460    0.29600    0.87330    1.000
    C17      C        0.17310    0.23120    0.82090    1.000
    H14      H        0.20680    0.21620    0.82510    1.000
    C18      C        0.08570    0.22860    0.78500    1.000
    H15      H        0.05970    0.21120    0.76370    1.000
    C19      C        0.07270    0.27380    0.81490    1.000
    H16      H        0.03840    0.28770    0.81230    1.000
    C20      C        0.15130    0.16090    0.74920    1.000
    C21      C        0.17390    0.11670    0.77510    1.000
    H17      H        0.17890    0.11710    0.81420    1.000
    C22      C        0.18930    0.07210    0.74520    1.000
    C23      C        0.18030    0.07200    0.68570    1.000
    C24      C        0.15820    0.11560    0.65870    1.000
    H18      H        0.15230    0.11540    0.61970    1.000
    C25      C        0.14450    0.16140    0.69250    1.000
    C26      C        0.12840    0.20856    0.65850    1.000
    C27      C        0.08690    0.20740    0.61990    1.000
    H19      H        0.06620    0.17670    0.61750    1.000
    C28      C        0.07510    0.24910    0.58540    1.000
    H20      H        0.04710    0.24660    0.55970    1.000
    C29      C        0.10570    0.29624    0.58870    1.000
    C30      C        0.14460    0.29870    0.63000    1.000
    H21      H        0.16390    0.33010    0.63470    1.000
    C31      C        0.15540    0.25580    0.66420    1.000
    H22      H        0.18170    0.25880    0.69200    1.000
    C32      C        0.09570    0.34140    0.54800    1.000
    C33      C        0.23250    0.03030    0.82370    1.000
    H23      H        0.24660    0.06560    0.83130    1.000
    H24      H        0.20320    0.02420    0.84990    1.000
    C34      C        0.23290    0.89230    0.57100    1.000
    H25      H        0.26920    0.89620    0.58470    1.000
    H26      H        0.23390    0.88830    0.53000    1.000
    C35      C        0.23010    0.98430    0.57660    1.000
    H27      H        0.23830    0.98760    0.53650    1.000
    H28      H        0.26330    0.98370    0.59770    1.000
    C36      C        0.19650    0.03080    0.59560    1.000
    H29      H        0.21130    0.06420    0.58220    1.000
    H30      H        0.16030    0.02740    0.58180    1.000
    C37      C        0.19870    0.80460    0.68790    1.000
    C38      C        0.21000    0.80400    0.74560    1.000
    C39      C        0.19160    0.76070    0.78010    1.000
    H31      H        0.19760    0.76060    0.81910    1.000
    C40      C        0.16430    0.71860    0.75420    1.000
    C41      C        0.15380    0.72040    0.69750    1.000
    C42      C        0.17060    0.76290    0.66630    1.000
    H32      H        0.16230    0.76340    0.62780    1.000
    C43      C        0.12190    0.67940    0.66820    1.000
    C44      C        0.06570    0.68200    0.66650    1.000
    H33      H        0.04850    0.70870    0.68690    1.000
    C45      C        0.03540    0.64660    0.63590    1.000
    H34      H        0.99850    0.64950    0.63580    1.000
    C46      C        0.06000    0.60640    0.60513    1.000
    C47      C        0.11390    0.60393    0.60500    1.000
    H35      H        0.13070    0.57800    0.58320    1.000
    C48      C        0.14490    0.63920    0.63660    1.000
    H36      H        0.18170    0.63550    0.63640    1.000
    O8       O        0.04493    0.43395    0.96727    1.000
    O9       O        0.21266    0.02886    0.76750    1.000
    O10      O        0.23540    0.84566    0.77085    1.000
    O11      O        0.21494    0.84760    0.65710    1.000
    O12      O        0.20197    0.93808    0.58630    1.000
    O13      O        0.19827    0.02769    0.65904    1.000
    O14      O        0.06350    0.33277    0.50913    1.000
    O15      O        0.12248    0.38312    0.55563    1.000
    Zn1      Zn       0.03769    0.40773    0.04833    1.000
    Zn2      Zn       0.11908    0.43994    0.94480    1.000
    C49      C        0.86270    0.79140    0.78630    1.000
    C50      C        0.72800    0.00700    0.83440    1.000
    H37      H        0.70800    0.99960    0.86880    1.000
    H38      H        0.70390    0.01190    0.80250    1.000
    C51      C        0.74120    0.10310    0.85270    1.000
    H39      H        0.73330    0.10570    0.89300    1.000
    H40      H        0.70800    0.10010    0.83200    1.000
    C52      C        0.77200    0.15200    0.83310    1.000
    H41      H        0.75820    0.18400    0.85100    1.000
    H42      H        0.80950    0.14870    0.84250    1.000
    C53      C        0.79270    0.15570    0.59770    1.000
    H43      H        0.83050    0.15630    0.58900    1.000
    H44      H        0.77670    0.18800    0.58310    1.000
    C54      C        0.97371    0.42970    0.57020    1.000
    C55      C        0.85090    0.32630    0.79170    1.000
    C56      C        0.90570    0.33140    0.81030    1.000
    H45      H        0.93050    0.30530    0.80090    1.000
    C57      C        0.92080    0.37480    0.84190    1.000
    H46      H        0.95620    0.37860    0.85260    1.000
    C58      C        0.88470    0.41240    0.85770    1.000
    C59      C        0.83260    0.40800    0.84090    1.000
    H47      H        0.80810    0.43410    0.85140    1.000
    C60      C        0.81610    0.36540    0.80840    1.000
    H48      H        0.78060    0.36300    0.79760    1.000
    C61      C        0.90300    0.45970    0.89290    1.000
    O16      O        0.86721    0.62399    0.89894    1.000
    O17      O        0.95400    0.64027    0.88376    1.000
    O18      O        0.77340    0.05900    0.84220    1.000
    O19      O        0.02303    0.42756    0.57921    1.000
    O20      O        0.95256    0.46023    0.53381    1.000
    O21      O        0.86682    0.49363    0.90592    1.000
    O22      O        0.94965    0.46221    0.90640    1.000
    C62      C        0.90500    0.65120    0.87910    1.000
    C63      C        0.89160    0.70210    0.84730    1.000
    C64      C        0.84060    0.72140    0.85120    1.000
    H49      H        0.81540    0.70400    0.87330    1.000
    C65      C        0.82690    0.76880    0.82090    1.000
    H50      H        0.79320    0.78380    0.82510    1.000
    C66      C        0.91430    0.77140    0.78500    1.000
    H51      H        0.94030    0.78880    0.76370    1.000
    C67      C        0.92730    0.72620    0.81490    1.000
    H52      H        0.96160    0.71230    0.81230    1.000
    C68      C        0.84870    0.83910    0.74920    1.000
    C69      C        0.82610    0.88330    0.77510    1.000
    H53      H        0.82110    0.88290    0.81420    1.000
    C70      C        0.81070    0.92790    0.74520    1.000
    C71      C        0.81970    0.92800    0.68570    1.000
    C72      C        0.84180    0.88440    0.65870    1.000
    H54      H        0.84770    0.88460    0.61970    1.000
    C73      C        0.85550    0.83860    0.69250    1.000
    C74      C        0.87160    0.79144    0.65850    1.000
    C75      C        0.91310    0.79260    0.61990    1.000
    H55      H        0.93380    0.82330    0.61750    1.000
    C76      C        0.92490    0.75090    0.58540    1.000
    H56      H        0.95290    0.75340    0.55970    1.000
    C77      C        0.89430    0.70376    0.58870    1.000
    C78      C        0.85540    0.70130    0.63000    1.000
    H57      H        0.83610    0.66990    0.63470    1.000
    C79      C        0.84460    0.74420    0.66420    1.000
    H58      H        0.81830    0.74120    0.69200    1.000
    C80      C        0.90430    0.65860    0.54800    1.000
    C81      C        0.76750    0.96970    0.82370    1.000
    H59      H        0.75340    0.93440    0.83130    1.000
    H60      H        0.79680    0.97580    0.84990    1.000
    C82      C        0.76710    0.10770    0.57100    1.000
    H61      H        0.73080    0.10380    0.58470    1.000
    H62      H        0.76610    0.11170    0.53000    1.000
    C83      C        0.76990    0.01570    0.57660    1.000
    H63      H        0.76170    0.01240    0.53650    1.000
    H64      H        0.73670    0.01630    0.59770    1.000
    C84      C        0.80350    0.96920    0.59560    1.000
    H65      H        0.78870    0.93580    0.58220    1.000
    H66      H        0.83970    0.97260    0.58180    1.000
    C85      C        0.80130    0.19540    0.68790    1.000
    C86      C        0.79000    0.19600    0.74560    1.000
    C87      C        0.80840    0.23930    0.78010    1.000
    H67      H        0.80240    0.23940    0.81910    1.000
    C88      C        0.83570    0.28140    0.75420    1.000
    C89      C        0.84620    0.27960    0.69750    1.000
    C90      C        0.82940    0.23710    0.66630    1.000
    H68      H        0.83770    0.23660    0.62780    1.000
    C91      C        0.87810    0.32060    0.66820    1.000
    C92      C        0.93430    0.31800    0.66650    1.000
    H69      H        0.95150    0.29130    0.68690    1.000
    C93      C        0.96460    0.35340    0.63590    1.000
    H70      H        0.00150    0.35050    0.63580    1.000
    C94      C        0.94000    0.39360    0.60513    1.000
    C95      C        0.88610    0.39607    0.60500    1.000
    H71      H        0.86930    0.42200    0.58320    1.000
    C96      C        0.85510    0.36080    0.63660    1.000
    H72      H        0.81830    0.36450    0.63640    1.000
    O23      O        0.95507    0.56605    0.96727    1.000
    O24      O        0.78734    0.97114    0.76750    1.000
    O25      O        0.76460    0.15434    0.77085    1.000
    O26      O        0.78506    0.15240    0.65710    1.000
    O27      O        0.79803    0.06192    0.58630    1.000
    O28      O        0.80173    0.97231    0.65904    1.000
    O29      O        0.93650    0.66723    0.50913    1.000
    O30      O        0.87752    0.61688    0.55563    1.000
    Zn3      Zn       0.96231    0.59227    0.04833    1.000
    Zn4      Zn       0.88092    0.56006    0.94480    1.000
    C97      C        0.29140    0.36270    0.28630    1.000
    C98      C        0.50700    0.22800    0.33440    1.000
    H73      H        0.49960    0.20800    0.36880    1.000
    H74      H        0.51190    0.20390    0.30250    1.000
    C99      C        0.60310    0.24120    0.35270    1.000
    H75      H        0.60570    0.23330    0.39300    1.000
    H76      H        0.60010    0.20800    0.33200    1.000
    C100     C        0.65200    0.27200    0.33310    1.000
    H77      H        0.68400    0.25820    0.35100    1.000
    H78      H        0.64870    0.30950    0.34250    1.000
    C101     C        0.65570    0.29270    0.09770    1.000
    H79      H        0.65630    0.33050    0.08900    1.000
    H80      H        0.68800    0.27670    0.08310    1.000
    C102     C        0.92970    0.47371    0.07020    1.000
    C103     C        0.82630    0.35090    0.29170    1.000
    C104     C        0.83140    0.40570    0.31030    1.000
    H81      H        0.80530    0.43050    0.30090    1.000
    C105     C        0.87480    0.42080    0.34190    1.000
    H82      H        0.87860    0.45620    0.35260    1.000
    C106     C        0.91240    0.38470    0.35770    1.000
    C107     C        0.90800    0.33260    0.34090    1.000
    H83      H        0.93410    0.30810    0.35140    1.000
    C108     C        0.86540    0.31610    0.30840    1.000
    H84      H        0.86300    0.28060    0.29760    1.000
    C109     C        0.95970    0.40300    0.39290    1.000
    O31      O        0.12399    0.36721    0.39894    1.000
    O32      O        0.14027    0.45400    0.38376    1.000
    O33      O        0.55900    0.27340    0.34220    1.000
    O34      O        0.92756    0.52303    0.07921    1.000
    O35      O        0.96023    0.45256    0.03381    1.000
    O36      O        0.99363    0.36682    0.40592    1.000
    O37      O        0.96221    0.44965    0.40640    1.000
    C110     C        0.15120    0.40500    0.37910    1.000
    C111     C        0.20210    0.39160    0.34730    1.000
    C112     C        0.22140    0.34060    0.35120    1.000
    H85      H        0.20400    0.31540    0.37330    1.000
    C113     C        0.26880    0.32690    0.32090    1.000
    H86      H        0.28380    0.29320    0.32510    1.000
    C114     C        0.27140    0.41430    0.28500    1.000
    H87      H        0.28880    0.44030    0.26370    1.000
    C115     C        0.22620    0.42730    0.31490    1.000
    H88      H        0.21230    0.46160    0.31230    1.000
    C116     C        0.33910    0.34870    0.24920    1.000
    C117     C        0.38330    0.32610    0.27510    1.000
    H89      H        0.38290    0.32110    0.31420    1.000
    C118     C        0.42790    0.31070    0.24520    1.000
    C119     C        0.42800    0.31970    0.18570    1.000
    C120     C        0.38440    0.34180    0.15870    1.000
    H90      H        0.38460    0.34770    0.11970    1.000
    C121     C        0.33860    0.35550    0.19250    1.000
    C122     C        0.29144    0.37160    0.15850    1.000
    C123     C        0.29260    0.41310    0.11990    1.000
    H91      H        0.32330    0.43380    0.11750    1.000
    C124     C        0.25090    0.42490    0.08540    1.000
    H92      H        0.25340    0.45290    0.05970    1.000
    C125     C        0.20376    0.39430    0.08870    1.000
    C126     C        0.20130    0.35540    0.13000    1.000
    H93      H        0.16990    0.33610    0.13470    1.000
    C127     C        0.24420    0.34460    0.16420    1.000
    H94      H        0.24120    0.31830    0.19200    1.000
    C128     C        0.15860    0.40430    0.04800    1.000
    C129     C        0.46970    0.26750    0.32370    1.000
    H95      H        0.43440    0.25340    0.33130    1.000
    H96      H        0.47580    0.29680    0.34990    1.000
    C130     C        0.60770    0.26710    0.07100    1.000
    H97      H        0.60380    0.23080    0.08470    1.000
    H98      H        0.61170    0.26610    0.03000    1.000
    C131     C        0.51570    0.26990    0.07660    1.000
    H99      H        0.51240    0.26170    0.03650    1.000
    H100     H        0.51630    0.23670    0.09770    1.000
    C132     C        0.46920    0.30350    0.09560    1.000
    H101     H        0.43580    0.28870    0.08220    1.000
    H102     H        0.47260    0.33970    0.08180    1.000
    C133     C        0.69540    0.30130    0.18790    1.000
    C134     C        0.69600    0.29000    0.24560    1.000
    C135     C        0.73930    0.30840    0.28010    1.000
    H103     H        0.73940    0.30240    0.31910    1.000
    C136     C        0.78140    0.33570    0.25420    1.000
    C137     C        0.77960    0.34620    0.19750    1.000
    C138     C        0.73710    0.32940    0.16630    1.000
    H104     H        0.73660    0.33770    0.12780    1.000
    C139     C        0.82060    0.37810    0.16820    1.000
    C140     C        0.81800    0.43430    0.16650    1.000
    H105     H        0.79130    0.45150    0.18690    1.000
    C141     C        0.85340    0.46460    0.13590    1.000
    H106     H        0.85050    0.50150    0.13580    1.000
    C142     C        0.89360    0.44000    0.10513    1.000
    C143     C        0.89607    0.38610    0.10500    1.000
    H107     H        0.92200    0.36930    0.08320    1.000
    C144     C        0.86080    0.35510    0.13660    1.000
    H108     H        0.86450    0.31830    0.13640    1.000
    O38      O        0.06605    0.45507    0.46727    1.000
    O39      O        0.47114    0.28734    0.26750    1.000
    O40      O        0.65434    0.26460    0.27085    1.000
    O41      O        0.65240    0.28506    0.15710    1.000
    O42      O        0.56192    0.29803    0.08630    1.000
    O43      O        0.47231    0.30173    0.15904    1.000
    O44      O        0.16723    0.43650    0.00913    1.000
    O45      O        0.11688    0.37752    0.05563    1.000
    Zn5      Zn       0.09227    0.46231    0.54833    1.000
    Zn6      Zn       0.06006    0.38092    0.44480    1.000
    C145     C        0.70860    0.63730    0.28630    1.000
    C146     C        0.49300    0.77200    0.33440    1.000
    H109     H        0.50040    0.79200    0.36880    1.000
    H110     H        0.48810    0.79610    0.30250    1.000
    C147     C        0.39690    0.75880    0.35270    1.000
    H111     H        0.39430    0.76670    0.39300    1.000
    H112     H        0.39990    0.79200    0.33200    1.000
    C148     C        0.34800    0.72800    0.33310    1.000
    H113     H        0.31600    0.74180    0.35100    1.000
    H114     H        0.35130    0.69050    0.34250    1.000
    C149     C        0.34430    0.70730    0.09770    1.000
    H115     H        0.34370    0.66950    0.08900    1.000
    H116     H        0.31200    0.72330    0.08310    1.000
    C150     C        0.07030    0.52629    0.07020    1.000
    C151     C        0.17370    0.64910    0.29170    1.000
    C152     C        0.16860    0.59430    0.31030    1.000
    H117     H        0.19470    0.56950    0.30090    1.000
    C153     C        0.12520    0.57920    0.34190    1.000
    H118     H        0.12140    0.54380    0.35260    1.000
    C154     C        0.08760    0.61530    0.35770    1.000
    C155     C        0.09200    0.66740    0.34090    1.000
    H119     H        0.06590    0.69190    0.35140    1.000
    C156     C        0.13460    0.68390    0.30840    1.000
    H120     H        0.13700    0.71940    0.29760    1.000
    C157     C        0.04030    0.59700    0.39290    1.000
    O46      O        0.87601    0.63279    0.39894    1.000
    O47      O        0.85973    0.54600    0.38376    1.000
    O48      O        0.44100    0.72660    0.34220    1.000
    O49      O        0.07244    0.47697    0.07921    1.000
    O50      O        0.03977    0.54744    0.03381    1.000
    O51      O        0.00637    0.63318    0.40592    1.000
    O52      O        0.03779    0.55035    0.40640    1.000
    C158     C        0.84880    0.59500    0.37910    1.000
    C159     C        0.79790    0.60840    0.34730    1.000
    C160     C        0.77860    0.65940    0.35120    1.000
    H121     H        0.79600    0.68460    0.37330    1.000
    C161     C        0.73120    0.67310    0.32090    1.000
    H122     H        0.71620    0.70680    0.32510    1.000
    C162     C        0.72860    0.58570    0.28500    1.000
    H123     H        0.71120    0.55970    0.26370    1.000
    C163     C        0.77380    0.57270    0.31490    1.000
    H124     H        0.78770    0.53840    0.31230    1.000
    C164     C        0.66090    0.65130    0.24920    1.000
    C165     C        0.61670    0.67390    0.27510    1.000
    H125     H        0.61710    0.67890    0.31420    1.000
    C166     C        0.57210    0.68930    0.24520    1.000
    C167     C        0.57200    0.68030    0.18570    1.000
    C168     C        0.61560    0.65820    0.15870    1.000
    H126     H        0.61540    0.65230    0.11970    1.000
    C169     C        0.66140    0.64450    0.19250    1.000
    C170     C        0.70856    0.62840    0.15850    1.000
    C171     C        0.70740    0.58690    0.11990    1.000
    H127     H        0.67670    0.56620    0.11750    1.000
    C172     C        0.74910    0.57510    0.08540    1.000
    H128     H        0.74660    0.54710    0.05970    1.000
    C173     C        0.79624    0.60570    0.08870    1.000
    C174     C        0.79870    0.64460    0.13000    1.000
    H129     H        0.83010    0.66390    0.13470    1.000
    C175     C        0.75580    0.65540    0.16420    1.000
    H130     H        0.75880    0.68170    0.19200    1.000
    C176     C        0.84140    0.59570    0.04800    1.000
    C177     C        0.53030    0.73250    0.32370    1.000
    H131     H        0.56560    0.74660    0.33130    1.000
    H132     H        0.52420    0.70320    0.34990    1.000
    C178     C        0.39230    0.73290    0.07100    1.000
    H133     H        0.39620    0.76920    0.08470    1.000
    H134     H        0.38830    0.73390    0.03000    1.000
    C179     C        0.48430    0.73010    0.07660    1.000
    H135     H        0.48760    0.73830    0.03650    1.000
    H136     H        0.48370    0.76330    0.09770    1.000
    C180     C        0.53080    0.69650    0.09560    1.000
    H137     H        0.56420    0.71130    0.08220    1.000
    H138     H        0.52740    0.66030    0.08180    1.000
    C181     C        0.30460    0.69870    0.18790    1.000
    C182     C        0.30400    0.71000    0.24560    1.000
    C183     C        0.26070    0.69160    0.28010    1.000
    H139     H        0.26060    0.69760    0.31910    1.000
    C184     C        0.21860    0.66430    0.25420    1.000
    C185     C        0.22040    0.65380    0.19750    1.000
    C186     C        0.26290    0.67060    0.16630    1.000
    H140     H        0.26340    0.66230    0.12780    1.000
    C187     C        0.17940    0.62190    0.16820    1.000
    C188     C        0.18200    0.56570    0.16650    1.000
    H141     H        0.20870    0.54850    0.18690    1.000
    C189     C        0.14660    0.53540    0.13590    1.000
    H142     H        0.14950    0.49850    0.13580    1.000
    C190     C        0.10640    0.56000    0.10513    1.000
    C191     C        0.10393    0.61390    0.10500    1.000
    H143     H        0.07800    0.63070    0.08320    1.000
    C192     C        0.13920    0.64490    0.13660    1.000
    H144     H        0.13550    0.68170    0.13640    1.000
    O53      O        0.93395    0.54493    0.46727    1.000
    O54      O        0.52886    0.71266    0.26750    1.000
    O55      O        0.34566    0.73540    0.27085    1.000
    O56      O        0.34760    0.71494    0.15710    1.000
    O57      O        0.43808    0.70197    0.08630    1.000
    O58      O        0.52769    0.69827    0.15904    1.000
    O59      O        0.83277    0.56350    0.00913    1.000
    O60      O        0.88312    0.62248    0.05563    1.000
    Zn7      Zn       0.90773    0.53769    0.54833    1.000
    Zn8      Zn       0.93994    0.61908    0.44480    1.000
    Zn9      Zn       0.00000    0.50000    0.96656    1.000
    Zn10     Zn       0.00000    0.50000    0.46656    1.000
    C193     C        0.20860    0.86270    0.21370    1.000
    C194     C        0.99300    0.72800    0.16560    1.000
    H145     H        0.00040    0.70800    0.13120    1.000
    H146     H        0.98810    0.70390    0.19750    1.000
    C195     C        0.89690    0.74120    0.14730    1.000
    H147     H        0.89430    0.73330    0.10700    1.000
    H148     H        0.89990    0.70800    0.16800    1.000
    C196     C        0.84800    0.77200    0.16690    1.000
    H149     H        0.81600    0.75820    0.14900    1.000
    H150     H        0.85130    0.80950    0.15750    1.000
    C197     C        0.84430    0.79270    0.40230    1.000
    H151     H        0.84370    0.83050    0.41100    1.000
    H152     H        0.81200    0.77670    0.41690    1.000
    C198     C        0.57030    0.97371    0.42980    1.000
    C199     C        0.67370    0.85090    0.20830    1.000
    C200     C        0.66860    0.90570    0.18970    1.000
    H153     H        0.69470    0.93050    0.19910    1.000
    C201     C        0.62520    0.92080    0.15810    1.000
    H154     H        0.62140    0.95620    0.14740    1.000
    C202     C        0.58760    0.88470    0.14230    1.000
    C203     C        0.59200    0.83260    0.15910    1.000
    H155     H        0.56590    0.80810    0.14860    1.000
    C204     C        0.63460    0.81610    0.19160    1.000
    H156     H        0.63700    0.78060    0.20240    1.000
    C205     C        0.54030    0.90300    0.10710    1.000
    O61      O        0.37601    0.86721    0.10106    1.000
    O62      O        0.35973    0.95400    0.11624    1.000
    O63      O        0.94100    0.77340    0.15780    1.000
    O64      O        0.57244    0.02303    0.42079    1.000
    O65      O        0.53977    0.95256    0.46619    1.000
    O66      O        0.50637    0.86682    0.09408    1.000
    O67      O        0.53779    0.94965    0.09360    1.000
    C206     C        0.34880    0.90500    0.12090    1.000
    C207     C        0.29790    0.89160    0.15270    1.000
    C208     C        0.27860    0.84060    0.14880    1.000
    H157     H        0.29600    0.81540    0.12670    1.000
    C209     C        0.23120    0.82690    0.17910    1.000
    H158     H        0.21620    0.79320    0.17490    1.000
    C210     C        0.22860    0.91430    0.21500    1.000
    H159     H        0.21120    0.94030    0.23630    1.000
    C211     C        0.27380    0.92730    0.18510    1.000
    H160     H        0.28770    0.96160    0.18770    1.000
    C212     C        0.16090    0.84870    0.25080    1.000
    C213     C        0.11670    0.82610    0.22490    1.000
    H161     H        0.11710    0.82110    0.18580    1.000
    C214     C        0.07210    0.81070    0.25480    1.000
    C215     C        0.07200    0.81970    0.31430    1.000
    C216     C        0.11560    0.84180    0.34130    1.000
    H162     H        0.11540    0.84770    0.38030    1.000
    C217     C        0.16140    0.85550    0.30750    1.000
    C218     C        0.20856    0.87160    0.34150    1.000
    C219     C        0.20740    0.91310    0.38010    1.000
    H163     H        0.17670    0.93380    0.38250    1.000
    C220     C        0.24910    0.92490    0.41460    1.000
    H164     H        0.24660    0.95290    0.44030    1.000
    C221     C        0.29624    0.89430    0.41130    1.000
    C222     C        0.29870    0.85540    0.37000    1.000
    H165     H        0.33010    0.83610    0.36530    1.000
    C223     C        0.25580    0.84460    0.33580    1.000
    H166     H        0.25880    0.81830    0.30800    1.000
    C224     C        0.34140    0.90430    0.45200    1.000
    C225     C        0.03030    0.76750    0.17630    1.000
    H167     H        0.06560    0.75340    0.16870    1.000
    H168     H        0.02420    0.79680    0.15010    1.000
    C226     C        0.89230    0.76710    0.42900    1.000
    H169     H        0.89620    0.73080    0.41530    1.000
    H170     H        0.88830    0.76610    0.47000    1.000
    C227     C        0.98430    0.76990    0.42340    1.000
    H171     H        0.98760    0.76170    0.46350    1.000
    H172     H        0.98370    0.73670    0.40230    1.000
    C228     C        0.03080    0.80350    0.40440    1.000
    H173     H        0.06420    0.78870    0.41780    1.000
    H174     H        0.02740    0.83970    0.41820    1.000
    C229     C        0.80460    0.80130    0.31210    1.000
    C230     C        0.80400    0.79000    0.25440    1.000
    C231     C        0.76070    0.80840    0.21990    1.000
    H175     H        0.76060    0.80240    0.18090    1.000
    C232     C        0.71860    0.83570    0.24580    1.000
    C233     C        0.72040    0.84620    0.30250    1.000
    C234     C        0.76290    0.82940    0.33370    1.000
    H176     H        0.76340    0.83770    0.37220    1.000
    C235     C        0.67940    0.87810    0.33180    1.000
    C236     C        0.68200    0.93430    0.33350    1.000
    H177     H        0.70870    0.95150    0.31310    1.000
    C237     C        0.64660    0.96460    0.36410    1.000
    H178     H        0.64950    0.00150    0.36420    1.000
    C238     C        0.60640    0.94000    0.39487    1.000
    C239     C        0.60393    0.88610    0.39500    1.000
    H179     H        0.57800    0.86930    0.41680    1.000
    C240     C        0.63920    0.85510    0.36340    1.000
    H180     H        0.63550    0.81830    0.36360    1.000
    O68      O        0.43395    0.95507    0.03273    1.000
    O69      O        0.02886    0.78734    0.23250    1.000
    O70      O        0.84566    0.76460    0.22915    1.000
    O71      O        0.84760    0.78506    0.34290    1.000
    O72      O        0.93808    0.79803    0.41370    1.000
    O73      O        0.02769    0.80173    0.34096    1.000
    O74      O        0.33277    0.93650    0.49087    1.000
    O75      O        0.38312    0.87752    0.44437    1.000
    Zn11     Zn       0.40773    0.96231    0.95167    1.000
    Zn12     Zn       0.43994    0.88092    0.05520    1.000
    C241     C        0.79140    0.13730    0.21370    1.000
    C242     C        0.00700    0.27200    0.16560    1.000
    H181     H        0.99960    0.29200    0.13120    1.000
    H182     H        0.01190    0.29610    0.19750    1.000
    C243     C        0.10310    0.25880    0.14730    1.000
    H183     H        0.10570    0.26670    0.10700    1.000
    H184     H        0.10010    0.29200    0.16800    1.000
    C244     C        0.15200    0.22800    0.16690    1.000
    H185     H        0.18400    0.24180    0.14900    1.000
    H186     H        0.14870    0.19050    0.15750    1.000
    C245     C        0.15570    0.20730    0.40230    1.000
    H187     H        0.15630    0.16950    0.41100    1.000
    H188     H        0.18800    0.22330    0.41690    1.000
    C246     C        0.42970    0.02629    0.42980    1.000
    C247     C        0.32630    0.14910    0.20830    1.000
    C248     C        0.33140    0.09430    0.18970    1.000
    H189     H        0.30530    0.06950    0.19910    1.000
    C249     C        0.37480    0.07920    0.15810    1.000
    H190     H        0.37860    0.04380    0.14740    1.000
    C250     C        0.41240    0.11530    0.14230    1.000
    C251     C        0.40800    0.16740    0.15910    1.000
    H191     H        0.43410    0.19190    0.14860    1.000
    C252     C        0.36540    0.18390    0.19160    1.000
    H192     H        0.36300    0.21940    0.20240    1.000
    C253     C        0.45970    0.09700    0.10710    1.000
    O76      O        0.62399    0.13279    0.10106    1.000
    O77      O        0.64027    0.04600    0.11624    1.000
    O78      O        0.05900    0.22660    0.15780    1.000
    O79      O        0.42756    0.97697    0.42079    1.000
    O80      O        0.46023    0.04744    0.46619    1.000
    O81      O        0.49363    0.13318    0.09408    1.000
    O82      O        0.46221    0.05035    0.09360    1.000
    C254     C        0.65120    0.09500    0.12090    1.000
    C255     C        0.70210    0.10840    0.15270    1.000
    C256     C        0.72140    0.15940    0.14880    1.000
    H193     H        0.70400    0.18460    0.12670    1.000
    C257     C        0.76880    0.17310    0.17910    1.000
    H194     H        0.78380    0.20680    0.17490    1.000
    C258     C        0.77140    0.08570    0.21500    1.000
    H195     H        0.78880    0.05970    0.23630    1.000
    C259     C        0.72620    0.07270    0.18510    1.000
    H196     H        0.71230    0.03840    0.18770    1.000
    C260     C        0.83910    0.15130    0.25080    1.000
    C261     C        0.88330    0.17390    0.22490    1.000
    H197     H        0.88290    0.17890    0.18580    1.000
    C262     C        0.92790    0.18930    0.25480    1.000
    C263     C        0.92800    0.18030    0.31430    1.000
    C264     C        0.88440    0.15820    0.34130    1.000
    H198     H        0.88460    0.15230    0.38030    1.000
    C265     C        0.83860    0.14450    0.30750    1.000
    C266     C        0.79144    0.12840    0.34150    1.000
    C267     C        0.79260    0.08690    0.38010    1.000
    H199     H        0.82330    0.06620    0.38250    1.000
    C268     C        0.75090    0.07510    0.41460    1.000
    H200     H        0.75340    0.04710    0.44030    1.000
    C269     C        0.70376    0.10570    0.41130    1.000
    C270     C        0.70130    0.14460    0.37000    1.000
    H201     H        0.66990    0.16390    0.36530    1.000
    C271     C        0.74420    0.15540    0.33580    1.000
    H202     H        0.74120    0.18170    0.30800    1.000
    C272     C        0.65860    0.09570    0.45200    1.000
    C273     C        0.96970    0.23250    0.17630    1.000
    H203     H        0.93440    0.24660    0.16870    1.000
    H204     H        0.97580    0.20320    0.15010    1.000
    C274     C        0.10770    0.23290    0.42900    1.000
    H205     H        0.10380    0.26920    0.41530    1.000
    H206     H        0.11170    0.23390    0.47000    1.000
    C275     C        0.01570    0.23010    0.42340    1.000
    H207     H        0.01240    0.23830    0.46350    1.000
    H208     H        0.01630    0.26330    0.40230    1.000
    C276     C        0.96920    0.19650    0.40440    1.000
    H209     H        0.93580    0.21130    0.41780    1.000
    H210     H        0.97260    0.16030    0.41820    1.000
    C277     C        0.19540    0.19870    0.31210    1.000
    C278     C        0.19600    0.21000    0.25440    1.000
    C279     C        0.23930    0.19160    0.21990    1.000
    H211     H        0.23940    0.19760    0.18090    1.000
    C280     C        0.28140    0.16430    0.24580    1.000
    C281     C        0.27960    0.15380    0.30250    1.000
    C282     C        0.23710    0.17060    0.33370    1.000
    H212     H        0.23660    0.16230    0.37220    1.000
    C283     C        0.32060    0.12190    0.33180    1.000
    C284     C        0.31800    0.06570    0.33350    1.000
    H213     H        0.29130    0.04850    0.31310    1.000
    C285     C        0.35340    0.03540    0.36410    1.000
    H214     H        0.35050    0.99850    0.36420    1.000
    C286     C        0.39360    0.06000    0.39487    1.000
    C287     C        0.39607    0.11390    0.39500    1.000
    H215     H        0.42200    0.13070    0.41680    1.000
    C288     C        0.36080    0.14490    0.36340    1.000
    H216     H        0.36450    0.18170    0.36360    1.000
    O83      O        0.56605    0.04493    0.03273    1.000
    O84      O        0.97114    0.21266    0.23250    1.000
    O85      O        0.15434    0.23540    0.22915    1.000
    O86      O        0.15240    0.21494    0.34290    1.000
    O87      O        0.06192    0.20197    0.41370    1.000
    O88      O        0.97231    0.19827    0.34096    1.000
    O89      O        0.66723    0.06350    0.49087    1.000
    O90      O        0.61688    0.12248    0.44437    1.000
    Zn13     Zn       0.59227    0.03769    0.95167    1.000
    Zn14     Zn       0.56006    0.11908    0.05520    1.000
    C289     C        0.36270    0.70860    0.71370    1.000
    C290     C        0.22800    0.49300    0.66560    1.000
    H217     H        0.20800    0.50040    0.63120    1.000
    H218     H        0.20390    0.48810    0.69750    1.000
    C291     C        0.24120    0.39690    0.64730    1.000
    H219     H        0.23330    0.39430    0.60700    1.000
    H220     H        0.20800    0.39990    0.66800    1.000
    C292     C        0.27200    0.34800    0.66690    1.000
    H221     H        0.25820    0.31600    0.64900    1.000
    H222     H        0.30950    0.35130    0.65750    1.000
    C293     C        0.29270    0.34430    0.90230    1.000
    H223     H        0.33050    0.34370    0.91100    1.000
    H224     H        0.27670    0.31200    0.91690    1.000
    C294     C        0.47371    0.07030    0.92980    1.000
    C295     C        0.35090    0.17370    0.70830    1.000
    C296     C        0.40570    0.16860    0.68970    1.000
    H225     H        0.43050    0.19470    0.69910    1.000
    C297     C        0.42080    0.12520    0.65810    1.000
    H226     H        0.45620    0.12140    0.64740    1.000
    C298     C        0.38470    0.08760    0.64230    1.000
    C299     C        0.33260    0.09200    0.65910    1.000
    H227     H        0.30810    0.06590    0.64860    1.000
    C300     C        0.31610    0.13460    0.69160    1.000
    H228     H        0.28060    0.13700    0.70240    1.000
    C301     C        0.40300    0.04030    0.60710    1.000
    O91      O        0.36721    0.87601    0.60106    1.000
    O92      O        0.45400    0.85973    0.61624    1.000
    O93      O        0.27340    0.44100    0.65780    1.000
    O94      O        0.52303    0.07244    0.92079    1.000
    O95      O        0.45256    0.03977    0.96619    1.000
    O96      O        0.36682    0.00637    0.59408    1.000
    O97      O        0.44965    0.03779    0.59360    1.000
    C302     C        0.40500    0.84880    0.62090    1.000
    C303     C        0.39160    0.79790    0.65270    1.000
    C304     C        0.34060    0.77860    0.64880    1.000
    H229     H        0.31540    0.79600    0.62670    1.000
    C305     C        0.32690    0.73120    0.67910    1.000
    H230     H        0.29320    0.71620    0.67490    1.000
    C306     C        0.41430    0.72860    0.71500    1.000
    H231     H        0.44030    0.71120    0.73630    1.000
    C307     C        0.42730    0.77380    0.68510    1.000
    H232     H        0.46160    0.78770    0.68770    1.000
    C308     C        0.34870    0.66090    0.75080    1.000
    C309     C        0.32610    0.61670    0.72490    1.000
    H233     H        0.32110    0.61710    0.68580    1.000
    C310     C        0.31070    0.57210    0.75480    1.000
    C311     C        0.31970    0.57200    0.81430    1.000
    C312     C        0.34180    0.61560    0.84130    1.000
    H234     H        0.34770    0.61540    0.88030    1.000
    C313     C        0.35550    0.66140    0.80750    1.000
    C314     C        0.37160    0.70856    0.84150    1.000
    C315     C        0.41310    0.70740    0.88010    1.000
    H235     H        0.43380    0.67670    0.88250    1.000
    C316     C        0.42490    0.74910    0.91460    1.000
    H236     H        0.45290    0.74660    0.94030    1.000
    C317     C        0.39430    0.79624    0.91130    1.000
    C318     C        0.35540    0.79870    0.87000    1.000
    H237     H        0.33610    0.83010    0.86530    1.000
    C319     C        0.34460    0.75580    0.83580    1.000
    H238     H        0.31830    0.75880    0.80800    1.000
    C320     C        0.40430    0.84140    0.95200    1.000
    C321     C        0.26750    0.53030    0.67630    1.000
    H239     H        0.25340    0.56560    0.66870    1.000
    H240     H        0.29680    0.52420    0.65010    1.000
    C322     C        0.26710    0.39230    0.92900    1.000
    H241     H        0.23080    0.39620    0.91530    1.000
    H242     H        0.26610    0.38830    0.97000    1.000
    C323     C        0.26990    0.48430    0.92340    1.000
    H243     H        0.26170    0.48760    0.96350    1.000
    H244     H        0.23670    0.48370    0.90230    1.000
    C324     C        0.30350    0.53080    0.90440    1.000
    H245     H        0.28870    0.56420    0.91780    1.000
    H246     H        0.33970    0.52740    0.91820    1.000
    C325     C        0.30130    0.30460    0.81210    1.000
    C326     C        0.29000    0.30400    0.75440    1.000
    C327     C        0.30840    0.26070    0.71990    1.000
    H247     H        0.30240    0.26060    0.68090    1.000
    C328     C        0.33570    0.21860    0.74580    1.000
    C329     C        0.34620    0.22040    0.80250    1.000
    C330     C        0.32940    0.26290    0.83370    1.000
    H248     H        0.33770    0.26340    0.87220    1.000
    C331     C        0.37810    0.17940    0.83180    1.000
    C332     C        0.43430    0.18200    0.83350    1.000
    H249     H        0.45150    0.20870    0.81310    1.000
    C333     C        0.46460    0.14660    0.86410    1.000
    H250     H        0.50150    0.14950    0.86420    1.000
    C334     C        0.44000    0.10640    0.89487    1.000
    C335     C        0.38610    0.10393    0.89500    1.000
    H251     H        0.36930    0.07800    0.91680    1.000
    C336     C        0.35510    0.13920    0.86340    1.000
    H252     H        0.31830    0.13550    0.86360    1.000
    O98      O        0.45507    0.93395    0.53273    1.000
    O99      O        0.28734    0.52886    0.73250    1.000
    O100     O        0.26460    0.34566    0.72915    1.000
    O101     O        0.28506    0.34760    0.84290    1.000
    O102     O        0.29803    0.43808    0.91370    1.000
    O103     O        0.30173    0.52769    0.84096    1.000
    O104     O        0.43650    0.83277    0.99087    1.000
    O105     O        0.37752    0.88312    0.94437    1.000
    Zn15     Zn       0.46231    0.90773    0.45167    1.000
    Zn16     Zn       0.38092    0.93994    0.55520    1.000
    C337     C        0.63730    0.29140    0.71370    1.000
    C338     C        0.77200    0.50700    0.66560    1.000
    H253     H        0.79200    0.49960    0.63120    1.000
    H254     H        0.79610    0.51190    0.69750    1.000
    C339     C        0.75880    0.60310    0.64730    1.000
    H255     H        0.76670    0.60570    0.60700    1.000
    H256     H        0.79200    0.60010    0.66800    1.000
    C340     C        0.72800    0.65200    0.66690    1.000
    H257     H        0.74180    0.68400    0.64900    1.000
    H258     H        0.69050    0.64870    0.65750    1.000
    C341     C        0.70730    0.65570    0.90230    1.000
    H259     H        0.66950    0.65630    0.91100    1.000
    H260     H        0.72330    0.68800    0.91690    1.000
    C342     C        0.52629    0.92970    0.92980    1.000
    C343     C        0.64910    0.82630    0.70830    1.000
    C344     C        0.59430    0.83140    0.68970    1.000
    H261     H        0.56950    0.80530    0.69910    1.000
    C345     C        0.57920    0.87480    0.65810    1.000
    H262     H        0.54380    0.87860    0.64740    1.000
    C346     C        0.61530    0.91240    0.64230    1.000
    C347     C        0.66740    0.90800    0.65910    1.000
    H263     H        0.69190    0.93410    0.64860    1.000
    C348     C        0.68390    0.86540    0.69160    1.000
    H264     H        0.71940    0.86300    0.70240    1.000
    C349     C        0.59700    0.95970    0.60710    1.000
    O106     O        0.63279    0.12399    0.60106    1.000
    O107     O        0.54600    0.14027    0.61624    1.000
    O108     O        0.72660    0.55900    0.65780    1.000
    O109     O        0.47697    0.92756    0.92079    1.000
    O110     O        0.54744    0.96023    0.96619    1.000
    O111     O        0.63318    0.99363    0.59408    1.000
    O112     O        0.55035    0.96221    0.59360    1.000
    C350     C        0.59500    0.15120    0.62090    1.000
    C351     C        0.60840    0.20210    0.65270    1.000
    C352     C        0.65940    0.22140    0.64880    1.000
    H265     H        0.68460    0.20400    0.62670    1.000
    C353     C        0.67310    0.26880    0.67910    1.000
    H266     H        0.70680    0.28380    0.67490    1.000
    C354     C        0.58570    0.27140    0.71500    1.000
    H267     H        0.55970    0.28880    0.73630    1.000
    C355     C        0.57270    0.22620    0.68510    1.000
    H268     H        0.53840    0.21230    0.68770    1.000
    C356     C        0.65130    0.33910    0.75080    1.000
    C357     C        0.67390    0.38330    0.72490    1.000
    H269     H        0.67890    0.38290    0.68580    1.000
    C358     C        0.68930    0.42790    0.75480    1.000
    C359     C        0.68030    0.42800    0.81430    1.000
    C360     C        0.65820    0.38440    0.84130    1.000
    H270     H        0.65230    0.38460    0.88030    1.000
    C361     C        0.64450    0.33860    0.80750    1.000
    C362     C        0.62840    0.29144    0.84150    1.000
    C363     C        0.58690    0.29260    0.88010    1.000
    H271     H        0.56620    0.32330    0.88250    1.000
    C364     C        0.57510    0.25090    0.91460    1.000
    H272     H        0.54710    0.25340    0.94030    1.000
    C365     C        0.60570    0.20376    0.91130    1.000
    C366     C        0.64460    0.20130    0.87000    1.000
    H273     H        0.66390    0.16990    0.86530    1.000
    C367     C        0.65540    0.24420    0.83580    1.000
    H274     H        0.68170    0.24120    0.80800    1.000
    C368     C        0.59570    0.15860    0.95200    1.000
    C369     C        0.73250    0.46970    0.67630    1.000
    H275     H        0.74660    0.43440    0.66870    1.000
    H276     H        0.70320    0.47580    0.65010    1.000
    C370     C        0.73290    0.60770    0.92900    1.000
    H277     H        0.76920    0.60380    0.91530    1.000
    H278     H        0.73390    0.61170    0.97000    1.000
    C371     C        0.73010    0.51570    0.92340    1.000
    H279     H        0.73830    0.51240    0.96350    1.000
    H280     H        0.76330    0.51630    0.90230    1.000
    C372     C        0.69650    0.46920    0.90440    1.000
    H281     H        0.71130    0.43580    0.91780    1.000
    H282     H        0.66030    0.47260    0.91820    1.000
    C373     C        0.69870    0.69540    0.81210    1.000
    C374     C        0.71000    0.69600    0.75440    1.000
    C375     C        0.69160    0.73930    0.71990    1.000
    H283     H        0.69760    0.73940    0.68090    1.000
    C376     C        0.66430    0.78140    0.74580    1.000
    C377     C        0.65380    0.77960    0.80250    1.000
    C378     C        0.67060    0.73710    0.83370    1.000
    H284     H        0.66230    0.73660    0.87220    1.000
    C379     C        0.62190    0.82060    0.83180    1.000
    C380     C        0.56570    0.81800    0.83350    1.000
    H285     H        0.54850    0.79130    0.81310    1.000
    C381     C        0.53540    0.85340    0.86410    1.000
    H286     H        0.49850    0.85050    0.86420    1.000
    C382     C        0.56000    0.89360    0.89487    1.000
    C383     C        0.61390    0.89607    0.89500    1.000
    H287     H        0.63070    0.92200    0.91680    1.000
    C384     C        0.64490    0.86080    0.86340    1.000
    H288     H        0.68170    0.86450    0.86360    1.000
    O113     O        0.54493    0.06605    0.53273    1.000
    O114     O        0.71266    0.47114    0.73250    1.000
    O115     O        0.73540    0.65434    0.72915    1.000
    O116     O        0.71494    0.65240    0.84290    1.000
    O117     O        0.70197    0.56192    0.91370    1.000
    O118     O        0.69827    0.47231    0.84096    1.000
    O119     O        0.56350    0.16723    0.99087    1.000
    O120     O        0.62248    0.11688    0.94437    1.000
    Zn17     Zn       0.53769    0.09227    0.45167    1.000
    Zn18     Zn       0.61908    0.06006    0.55520    1.000
    Zn19     Zn       0.50000    0.00000    0.03344    1.000
    Zn20     Zn       0.50000    0.00000    0.53344    1.000
