# CIF file generated by openbabel 3.1.0, see https://openbabel.org
data_I
_chemical_name_common 'image0'
_cell_length_a 21.8937
_cell_length_b 21.8937
_cell_length_c 16.7687
_cell_angle_alpha 90
_cell_angle_beta 90
_cell_angle_gamma 90
_space_group_name_H-M_alt 'P 1'
_space_group_name_Hall 'P 1'
loop_
    _symmetry_equiv_pos_as_xyz
    x,y,z
loop_
    _atom_site_label
    _atom_site_type_symbol
    _atom_site_fract_x
    _atom_site_fract_y
    _atom_site_fract_z
    _atom_site_occupancy
    La1      La       0.82020    0.35795    0.63752    1.000
    N1       N        0.86290    0.41710    0.76500    1.000
    O1       O        0.72120    0.43070    0.86270    1.000
    O2       O        0.74740    0.38900    0.74590    1.000
    O3       O        0.93220    0.38350    0.64420    1.000
    O4       O        0.01470    0.42470    0.70020    1.000
    O5       O        0.72150    0.38340    0.55680    1.000
    H1       H        0.72540    0.42060    0.53960    1.000
    H2       H        0.73230    0.36070    0.51780    1.000
    C1       C        0.75930    0.41710    0.81060    1.000
    C2       C        0.82470    0.43470    0.82350    1.000
    C3       C        0.84500    0.46750    0.88700    1.000
    H3       H        0.81790    0.47910    0.92700    1.000
    C4       C        0.90570    0.48360    0.89210    1.000
    H4       H        0.92010    0.50590    0.93540    1.000
    C5       C        0.94500    0.46580    0.83130    1.000
    H5       H        0.98620    0.47610    0.83290    1.000
    C6       C        0.92160    0.43280    0.76860    1.000
    C7       C        0.95930    0.41210    0.69850    1.000
    La2      La       0.32020    0.85795    0.13752    1.000
    N2       N        0.36290    0.91710    0.26500    1.000
    O6       O        0.22120    0.93070    0.36270    1.000
    O7       O        0.24740    0.88900    0.24590    1.000
    O8       O        0.43220    0.88350    0.14420    1.000
    O9       O        0.51470    0.92470    0.20020    1.000
    O10      O        0.22150    0.88340    0.05680    1.000
    H6       H        0.22540    0.92060    0.03960    1.000
    H7       H        0.23230    0.86070    0.01780    1.000
    C8       C        0.25930    0.91710    0.31060    1.000
    C9       C        0.32470    0.93470    0.32350    1.000
    C10      C        0.34500    0.96750    0.38700    1.000
    H8       H        0.31790    0.97910    0.42700    1.000
    C11      C        0.40570    0.98360    0.39210    1.000
    H9       H        0.42010    0.00590    0.43540    1.000
    C12      C        0.44500    0.96580    0.33130    1.000
    H10      H        0.48620    0.97610    0.33290    1.000
    C13      C        0.42160    0.93280    0.26860    1.000
    C14      C        0.45930    0.91210    0.19850    1.000
    La3      La       0.67980    0.64205    0.13752    1.000
    N3       N        0.63710    0.58290    0.26500    1.000
    O11      O        0.77880    0.56930    0.36270    1.000
    O12      O        0.75260    0.61100    0.24590    1.000
    O13      O        0.56780    0.61650    0.14420    1.000
    O14      O        0.48530    0.57530    0.20020    1.000
    O15      O        0.77850    0.61660    0.05680    1.000
    H11      H        0.77460    0.57940    0.03960    1.000
    H12      H        0.76770    0.63930    0.01780    1.000
    C15      C        0.74070    0.58290    0.31060    1.000
    C16      C        0.67530    0.56530    0.32350    1.000
    C17      C        0.65500    0.53250    0.38700    1.000
    H13      H        0.68210    0.52090    0.42700    1.000
    C18      C        0.59430    0.51640    0.39210    1.000
    H14      H        0.57990    0.49410    0.43540    1.000
    C19      C        0.55500    0.53420    0.33130    1.000
    H15      H        0.51380    0.52390    0.33290    1.000
    C20      C        0.57840    0.56720    0.26860    1.000
    C21      C        0.54070    0.58790    0.19850    1.000
    La4      La       0.17980    0.14205    0.63752    1.000
    N4       N        0.13710    0.08290    0.76500    1.000
    O16      O        0.27880    0.06930    0.86270    1.000
    O17      O        0.25260    0.11100    0.74590    1.000
    O18      O        0.06780    0.11650    0.64420    1.000
    O19      O        0.98530    0.07530    0.70020    1.000
    O20      O        0.27850    0.11660    0.55680    1.000
    H16      H        0.27460    0.07940    0.53960    1.000
    H17      H        0.26770    0.13930    0.51780    1.000
    C22      C        0.24070    0.08290    0.81060    1.000
    C23      C        0.17530    0.06530    0.82350    1.000
    C24      C        0.15500    0.03250    0.88700    1.000
    H18      H        0.18210    0.02090    0.92700    1.000
    C25      C        0.09430    0.01640    0.89210    1.000
    H19      H        0.07990    0.99410    0.93540    1.000
    C26      C        0.05500    0.03420    0.83130    1.000
    H20      H        0.01380    0.02390    0.83290    1.000
    C27      C        0.07840    0.06720    0.76860    1.000
    C28      C        0.04070    0.08790    0.69850    1.000
    La5      La       0.39205    0.07020    0.88752    1.000
    N5       N        0.33290    0.11290    0.01500    1.000
    O21      O        0.31930    0.97120    0.11270    1.000
    O22      O        0.36100    0.99740    0.99590    1.000
    O23      O        0.36650    0.18220    0.89420    1.000
    O24      O        0.32530    0.26470    0.95020    1.000
    O25      O        0.36660    0.97150    0.80680    1.000
    H21      H        0.32940    0.97540    0.78960    1.000
    H22      H        0.38930    0.98230    0.76780    1.000
    C29      C        0.33290    0.00930    0.06060    1.000
    C30      C        0.31530    0.07470    0.07350    1.000
    C31      C        0.28250    0.09500    0.13700    1.000
    H23      H        0.27090    0.06790    0.17700    1.000
    C32      C        0.26640    0.15570    0.14210    1.000
    H24      H        0.24410    0.17010    0.18540    1.000
    C33      C        0.28420    0.19500    0.08130    1.000
    H25      H        0.27390    0.23620    0.08290    1.000
    C34      C        0.31720    0.17160    0.01860    1.000
    C35      C        0.33790    0.20930    0.94850    1.000
    La6      La       0.89205    0.57020    0.38752    1.000
    N6       N        0.83290    0.61290    0.51500    1.000
    O26      O        0.81930    0.47120    0.61270    1.000
    O27      O        0.86100    0.49740    0.49590    1.000
    O28      O        0.86650    0.68220    0.39420    1.000
    O29      O        0.82530    0.76470    0.45020    1.000
    O30      O        0.86660    0.47150    0.30680    1.000
    H26      H        0.82940    0.47540    0.28960    1.000
    H27      H        0.88930    0.48230    0.26780    1.000
    C36      C        0.83290    0.50930    0.56060    1.000
    C37      C        0.81530    0.57470    0.57350    1.000
    C38      C        0.78250    0.59500    0.63700    1.000
    H28      H        0.77090    0.56790    0.67700    1.000
    C39      C        0.76640    0.65570    0.64210    1.000
    H29      H        0.74410    0.67010    0.68540    1.000
    C40      C        0.78420    0.69500    0.58130    1.000
    H30      H        0.77390    0.73620    0.58290    1.000
    C41      C        0.81720    0.67160    0.51860    1.000
    C42      C        0.83790    0.70930    0.44850    1.000
    La7      La       0.10795    0.92980    0.38752    1.000
    N7       N        0.16710    0.88710    0.51500    1.000
    O31      O        0.18070    0.02880    0.61270    1.000
    O32      O        0.13900    0.00260    0.49590    1.000
    O33      O        0.13350    0.81780    0.39420    1.000
    O34      O        0.17470    0.73530    0.45020    1.000
    O35      O        0.13340    0.02850    0.30680    1.000
    H31      H        0.17060    0.02460    0.28960    1.000
    H32      H        0.11070    0.01770    0.26780    1.000
    C43      C        0.16710    0.99070    0.56060    1.000
    C44      C        0.18470    0.92530    0.57350    1.000
    C45      C        0.21750    0.90500    0.63700    1.000
    H33      H        0.22910    0.93210    0.67700    1.000
    C46      C        0.23360    0.84430    0.64210    1.000
    H34      H        0.25590    0.82990    0.68540    1.000
    C47      C        0.21580    0.80500    0.58130    1.000
    H35      H        0.22610    0.76380    0.58290    1.000
    C48      C        0.18280    0.82840    0.51860    1.000
    C49      C        0.16210    0.79070    0.44850    1.000
    La8      La       0.60795    0.42980    0.88752    1.000
    N8       N        0.66710    0.38710    0.01500    1.000
    O36      O        0.68070    0.52880    0.11270    1.000
    O37      O        0.63900    0.50260    0.99590    1.000
    O38      O        0.63350    0.31780    0.89420    1.000
    O39      O        0.67470    0.23530    0.95020    1.000
    O40      O        0.63340    0.52850    0.80680    1.000
    H36      H        0.67060    0.52460    0.78960    1.000
    H37      H        0.61070    0.51770    0.76780    1.000
    C50      C        0.66710    0.49070    0.06060    1.000
    C51      C        0.68470    0.42530    0.07350    1.000
    C52      C        0.71750    0.40500    0.13700    1.000
    H38      H        0.72910    0.43210    0.17700    1.000
    C53      C        0.73360    0.34430    0.14210    1.000
    H39      H        0.75590    0.32990    0.18540    1.000
    C54      C        0.71580    0.30500    0.08130    1.000
    H40      H        0.72610    0.26380    0.08290    1.000
    C55      C        0.68280    0.32840    0.01860    1.000
    C56      C        0.66210    0.29070    0.94850    1.000
    La9      La       0.17980    0.64205    0.36248    1.000
    N9       N        0.13710    0.58290    0.23500    1.000
    O41      O        0.27880    0.56930    0.13730    1.000
    O42      O        0.25260    0.61100    0.25410    1.000
    O43      O        0.06780    0.61650    0.35580    1.000
    O44      O        0.98530    0.57530    0.29980    1.000
    O45      O        0.27850    0.61660    0.44320    1.000
    H41      H        0.27460    0.57940    0.46040    1.000
    H42      H        0.26770    0.63930    0.48220    1.000
    C57      C        0.24070    0.58290    0.18940    1.000
    C58      C        0.17530    0.56530    0.17650    1.000
    C59      C        0.15500    0.53250    0.11300    1.000
    H43      H        0.18210    0.52090    0.07300    1.000
    C60      C        0.09430    0.51640    0.10790    1.000
    H44      H        0.07990    0.49410    0.06460    1.000
    C61      C        0.05500    0.53420    0.16870    1.000
    H45      H        0.01380    0.52390    0.16710    1.000
    C62      C        0.07840    0.56720    0.23140    1.000
    C63      C        0.04070    0.58790    0.30150    1.000
    La10     La       0.67980    0.14205    0.86248    1.000
    N10      N        0.63710    0.08290    0.73500    1.000
    O46      O        0.77880    0.06930    0.63730    1.000
    O47      O        0.75260    0.11100    0.75410    1.000
    O48      O        0.56780    0.11650    0.85580    1.000
    O49      O        0.48530    0.07530    0.79980    1.000
    O50      O        0.77850    0.11660    0.94320    1.000
    H46      H        0.77460    0.07940    0.96040    1.000
    H47      H        0.76770    0.13930    0.98220    1.000
    C64      C        0.74070    0.08290    0.68940    1.000
    C65      C        0.67530    0.06530    0.67650    1.000
    C66      C        0.65500    0.03250    0.61300    1.000
    H48      H        0.68210    0.02090    0.57300    1.000
    C67      C        0.59430    0.01640    0.60790    1.000
    H49      H        0.57990    0.99410    0.56460    1.000
    C68      C        0.55500    0.03420    0.66870    1.000
    H50      H        0.51380    0.02390    0.66710    1.000
    C69      C        0.57840    0.06720    0.73140    1.000
    C70      C        0.54070    0.08790    0.80150    1.000
    La11     La       0.32020    0.35795    0.86248    1.000
    N11      N        0.36290    0.41710    0.73500    1.000
    O51      O        0.22120    0.43070    0.63730    1.000
    O52      O        0.24740    0.38900    0.75410    1.000
    O53      O        0.43220    0.38350    0.85580    1.000
    O54      O        0.51470    0.42470    0.79980    1.000
    O55      O        0.22150    0.38340    0.94320    1.000
    H51      H        0.22540    0.42060    0.96040    1.000
    H52      H        0.23230    0.36070    0.98220    1.000
    C71      C        0.25930    0.41710    0.68940    1.000
    C72      C        0.32470    0.43470    0.67650    1.000
    C73      C        0.34500    0.46750    0.61300    1.000
    H53      H        0.31790    0.47910    0.57300    1.000
    C74      C        0.40570    0.48360    0.60790    1.000
    H54      H        0.42010    0.50590    0.56460    1.000
    C75      C        0.44500    0.46580    0.66870    1.000
    H55      H        0.48620    0.47610    0.66710    1.000
    C76      C        0.42160    0.43280    0.73140    1.000
    C77      C        0.45930    0.41210    0.80150    1.000
    La12     La       0.82020    0.85795    0.36248    1.000
    N12      N        0.86290    0.91710    0.23500    1.000
    O56      O        0.72120    0.93070    0.13730    1.000
    O57      O        0.74740    0.88900    0.25410    1.000
    O58      O        0.93220    0.88350    0.35580    1.000
    O59      O        0.01470    0.92470    0.29980    1.000
    O60      O        0.72150    0.88340    0.44320    1.000
    H56      H        0.72540    0.92060    0.46040    1.000
    H57      H        0.73230    0.86070    0.48220    1.000
    C78      C        0.75930    0.91710    0.18940    1.000
    C79      C        0.82470    0.93470    0.17650    1.000
    C80      C        0.84500    0.96750    0.11300    1.000
    H58      H        0.81790    0.97910    0.07300    1.000
    C81      C        0.90570    0.98360    0.10790    1.000
    H59      H        0.92010    0.00590    0.06460    1.000
    C82      C        0.94500    0.96580    0.16870    1.000
    H60      H        0.98620    0.97610    0.16710    1.000
    C83      C        0.92160    0.93280    0.23140    1.000
    C84      C        0.95930    0.91210    0.30150    1.000
    La13     La       0.60795    0.92980    0.11248    1.000
    N13      N        0.66710    0.88710    0.98500    1.000
    O61      O        0.68070    0.02880    0.88730    1.000
    O62      O        0.63900    0.00260    0.00410    1.000
    O63      O        0.63350    0.81780    0.10580    1.000
    O64      O        0.67470    0.73530    0.04980    1.000
    O65      O        0.63340    0.02850    0.19320    1.000
    H61      H        0.67060    0.02460    0.21040    1.000
    H62      H        0.61070    0.01770    0.23220    1.000
    C85      C        0.66710    0.99070    0.93940    1.000
    C86      C        0.68470    0.92530    0.92650    1.000
    C87      C        0.71750    0.90500    0.86300    1.000
    H63      H        0.72910    0.93210    0.82300    1.000
    C88      C        0.73360    0.84430    0.85790    1.000
    H64      H        0.75590    0.82990    0.81460    1.000
    C89      C        0.71580    0.80500    0.91870    1.000
    H65      H        0.72610    0.76380    0.91710    1.000
    C90      C        0.68280    0.82840    0.98140    1.000
    C91      C        0.66210    0.79070    0.05150    1.000
    La14     La       0.10795    0.42980    0.61248    1.000
    N14      N        0.16710    0.38710    0.48500    1.000
    O66      O        0.18070    0.52880    0.38730    1.000
    O67      O        0.13900    0.50260    0.50410    1.000
    O68      O        0.13350    0.31780    0.60580    1.000
    O69      O        0.17470    0.23530    0.54980    1.000
    O70      O        0.13340    0.52850    0.69320    1.000
    H66      H        0.17060    0.52460    0.71040    1.000
    H67      H        0.11070    0.51770    0.73220    1.000
    C92      C        0.16710    0.49070    0.43940    1.000
    C93      C        0.18470    0.42530    0.42650    1.000
    C94      C        0.21750    0.40500    0.36300    1.000
    H68      H        0.22910    0.43210    0.32300    1.000
    C95      C        0.23360    0.34430    0.35790    1.000
    H69      H        0.25590    0.32990    0.31460    1.000
    C96      C        0.21580    0.30500    0.41870    1.000
    H70      H        0.22610    0.26380    0.41710    1.000
    C97      C        0.18280    0.32840    0.48140    1.000
    C98      C        0.16210    0.29070    0.55150    1.000
    La15     La       0.89205    0.07020    0.61248    1.000
    N15      N        0.83290    0.11290    0.48500    1.000
    O71      O        0.81930    0.97120    0.38730    1.000
    O72      O        0.86100    0.99740    0.50410    1.000
    O73      O        0.86650    0.18220    0.60580    1.000
    O74      O        0.82530    0.26470    0.54980    1.000
    O75      O        0.86660    0.97150    0.69320    1.000
    H71      H        0.82940    0.97540    0.71040    1.000
    H72      H        0.88930    0.98230    0.73220    1.000
    C99      C        0.83290    0.00930    0.43940    1.000
    C100     C        0.81530    0.07470    0.42650    1.000
    C101     C        0.78250    0.09500    0.36300    1.000
    H73      H        0.77090    0.06790    0.32300    1.000
    C102     C        0.76640    0.15570    0.35790    1.000
    H74      H        0.74410    0.17010    0.31460    1.000
    C103     C        0.78420    0.19500    0.41870    1.000
    H75      H        0.77390    0.23620    0.41710    1.000
    C104     C        0.81720    0.17160    0.48140    1.000
    C105     C        0.83790    0.20930    0.55150    1.000
    La16     La       0.39205    0.57020    0.11248    1.000
    N16      N        0.33290    0.61290    0.98500    1.000
    O76      O        0.31930    0.47120    0.88730    1.000
    O77      O        0.36100    0.49740    0.00410    1.000
    O78      O        0.36650    0.68220    0.10580    1.000
    O79      O        0.32530    0.76470    0.04980    1.000
    O80      O        0.36660    0.47150    0.19320    1.000
    H76      H        0.32940    0.47540    0.21040    1.000
    H77      H        0.38930    0.48230    0.23220    1.000
    C106     C        0.33290    0.50930    0.93940    1.000
    C107     C        0.31530    0.57470    0.92650    1.000
    C108     C        0.28250    0.59500    0.86300    1.000
    H78      H        0.27090    0.56790    0.82300    1.000
    C109     C        0.26640    0.65570    0.85790    1.000
    H79      H        0.24410    0.67010    0.81460    1.000
    C110     C        0.28420    0.69500    0.91870    1.000
    H80      H        0.27390    0.73620    0.91710    1.000
    C111     C        0.31720    0.67160    0.98140    1.000
    C112     C        0.33790    0.70930    0.05150    1.000
