# CIF file generated by openbabel 3.1.0, see https://openbabel.org
data_I
_chemical_name_common 'MAZSUD_clean'
_cell_length_a 9.1789
_cell_length_b 10.9267
_cell_length_c 11.371
_cell_angle_alpha 117.844
_cell_angle_beta 100.861
_cell_angle_gamma 99.344
_space_group_name_H-M_alt 'P 1'
_space_group_name_Hall 'P 1'
loop_
    _symmetry_equiv_pos_as_xyz
    x,y,z
loop_
    _atom_site_label
    _atom_site_type_symbol
    _atom_site_fract_x
    _atom_site_fract_y
    _atom_site_fract_z
    _atom_site_occupancy
    Zn1      Zn       0.19095    0.62355    0.12211    1.000
    Zn2      Zn       0.80905    0.37645    0.87789    1.000
    Zn3      Zn       0.50000    0.50000    0.00000    1.000
    H1       H        0.62530    0.82780    0.97670    1.000
    H2       H        0.29420    0.00970    0.08850    1.000
    H3       H        0.69420    0.39080    0.50710    1.000
    H4       H        0.38640    0.57330    0.67650    1.000
    H5       H        0.24960    0.23100    0.70380    1.000
    H6       H        0.96770    0.17760    0.65400    1.000
    H7       H        0.37470    0.17220    0.02330    1.000
    H8       H        0.70580    0.99030    0.91150    1.000
    H9       H        0.30580    0.60920    0.49290    1.000
    H10      H        0.61360    0.42670    0.32350    1.000
    H11      H        0.75040    0.76900    0.29620    1.000
    H12      H        0.03230    0.82240    0.34600    1.000
    C1       C        0.44840    0.90050    0.03740    1.000
    C2       C        0.57400    0.89700    0.98570    1.000
    C3       C        0.37720    0.00500    0.05210    1.000
    C4       C        0.39190    0.79010    0.07310    1.000
    C5       C        0.54670    0.47420    0.60720    1.000
    C6       C        0.61530    0.43400    0.50420    1.000
    C7       C        0.43150    0.54300    0.60480    1.000
    C8       C        0.59810    0.45510    0.73010    1.000
    C9       C        0.19760    0.28380    0.76330    1.000
    C10      C        0.04160    0.25390    0.73470    1.000
    C11      C        0.55160    0.09950    0.96260    1.000
    C12      C        0.42600    0.10300    0.01430    1.000
    C13      C        0.62280    0.99500    0.94790    1.000
    C14      C        0.60810    0.20990    0.92690    1.000
    C15      C        0.45330    0.52580    0.39280    1.000
    C16      C        0.38470    0.56600    0.49580    1.000
    C17      C        0.56850    0.45700    0.39520    1.000
    C18      C        0.40190    0.54490    0.26990    1.000
    C19      C        0.80240    0.71620    0.23670    1.000
    C20      C        0.95840    0.74610    0.26530    1.000
    N1       N        0.26430    0.39930    0.88850    1.000
    N2       N        0.15140    0.44320    0.93820    1.000
    N3       N        0.01510    0.35610    0.84570    1.000
    N4       N        0.73570    0.60070    0.11150    1.000
    N5       N        0.84860    0.55680    0.06180    1.000
    N6       N        0.98490    0.64390    0.15430    1.000
    O1       O        0.27010    0.79080    0.10560    1.000
    O2       O        0.46690    0.70510    0.07200    1.000
    O3       O        0.53620    0.50180    0.82380    1.000
    O4       O        0.70250    0.39100    0.72490    1.000
    O5       O        0.72990    0.20920    0.89440    1.000
    O6       O        0.53310    0.29490    0.92800    1.000
    O7       O        0.46380    0.49820    0.17620    1.000
    O8       O        0.29750    0.60900    0.27510    1.000
