# CIF file generated by openbabel 3.1.0, see https://openbabel.org
data_I
_chemical_name_common 'image0'
_cell_length_a 13.0882
_cell_length_b 26.6665
_cell_length_c 13.1336
_cell_angle_alpha 90
_cell_angle_beta 116.072
_cell_angle_gamma 90
_space_group_name_H-M_alt 'P 1'
_space_group_name_Hall 'P 1'
loop_
    _symmetry_equiv_pos_as_xyz
    x,y,z
loop_
    _atom_site_label
    _atom_site_type_symbol
    _atom_site_fract_x
    _atom_site_fract_y
    _atom_site_fract_z
    _atom_site_occupancy
    Gd1      Gd       0.82070    0.00486    0.91889    1.000
    O1       O        0.87710    0.06750    0.06370    1.000
    O2       O        0.68890    0.05324    0.78200    1.000
    O3       O        0.94340    0.95296    0.88360    1.000
    O4       O        0.89080    0.95188    0.07400    1.000
    O5       O        0.92610    0.06527    0.87030    1.000
    O6       O        0.69530    0.93736    0.83210    1.000
    C1       C        0.97980    0.07690    0.11280    1.000
    C2       C        0.62180    0.08120    0.70380    1.000
    C3       C        0.01410    0.12800    0.16630    1.000
    C4       C        0.60280    0.13300    0.73660    1.000
    O7       O        0.56990    0.06845    0.60340    1.000
    C5       C        0.11720    0.14840    0.18000    1.000
    C6       C        0.94090    0.15550    0.19480    1.000
    C7       C        0.51850    0.16380    0.65590    1.000
    C8       C        0.66810    0.15090    0.84720    1.000
    Gd2      Gd       0.45081    0.00676    0.50369    1.000
    H1       H        0.16700    0.12950    0.16240    1.000
    C9       C        0.14550    0.19720    0.22030    1.000
    H2       H        0.87200    0.14190    0.18550    1.000
    C10      C        0.97100    0.20330    0.23710    1.000
    H3       H        0.47440    0.15210    0.58290    1.000
    C11      C        0.50240    0.21130    0.68630    1.000
    H4       H        0.72270    0.13020    0.90040    1.000
    C12      C        0.65210    0.19890    0.87780    1.000
    O8       O        0.31250    0.07510    0.50870    1.000
    O9       O        0.38450    0.03280    0.64900    1.000
    O10      O        0.57830    0.95390    0.65490    1.000
    H5       H        0.21400    0.21110    0.22890    1.000
    C13      C        0.07310    0.22450    0.24700    1.000
    C14      C        0.90710    0.24000    0.27850    1.000
    C15      C        0.56690    0.22920    0.79620    1.000
    C16      C        0.41930    0.25120    0.61330    1.000
    H6       H        0.69660    0.21090    0.95050    1.000
    N1       N        0.30850    0.06600    0.59700    1.000
    C17      C        0.07760    0.27660    0.28420    1.000
    C18      C        0.90400    0.22190    0.38750    1.000
    C19      C        0.78790    0.25040    0.18560    1.000
    C20      C        0.98200    0.28660    0.30240    1.000
    C21      C        0.53490    0.28110    0.80280    1.000
    C22      C        0.29520    0.23240    0.57260    1.000
    C23      C        0.43930    0.26640    0.51340    1.000
    C24      C        0.44660    0.29390    0.69890    1.000
    O11      O        0.27020    0.08850    0.63900    1.000
    C25      C        0.15600    0.31500    0.30040    1.000
    H7       H        0.87340    0.24700    0.41810    1.000
    H8       H        0.98300    0.21500    0.44000    1.000
    H9       H        0.85870    0.19200    0.37390    1.000
    H10      H        0.75370    0.27640    0.21030    1.000
    H11      H        0.74370    0.22040    0.17420    1.000
    H12      H        0.78800    0.26000    0.11610    1.000
    C26      C        0.96330    0.33440    0.33240    1.000
    C27      C        0.57390    0.31440    0.89080    1.000
    H13      H        0.28380    0.22120    0.63550    1.000
    H14      H        0.28060    0.20550    0.52050    1.000
    H15      H        0.24290    0.25940    0.53560    1.000
    H16      H        0.39230    0.29480    0.47640    1.000
    H17      H        0.41930    0.23910    0.46130    1.000
    H18      H        0.51960    0.27470    0.53940    1.000
    C28      C        0.39780    0.34090    0.68390    1.000
    H19      H        0.21920    0.30900    0.28730    1.000
    C29      C        0.13980    0.36130    0.33540    1.000
    H20      H        0.89760    0.34130    0.34050    1.000
    C30      C        0.04250    0.37200    0.35020    1.000
    H21      H        0.63160    0.30500    0.96060    1.000
    C31      C        0.52850    0.36120    0.87640    1.000
    H22      H        0.33880    0.34990    0.61450    1.000
    C32      C        0.43750    0.37450    0.77320    1.000
    H23      H        0.19430    0.38610    0.34970    1.000
    C33      C        0.02530    0.42340    0.38470    1.000
    H24      H        0.55790    0.38440    0.93510    1.000
    C34      C        0.38100    0.42540    0.75940    1.000
    Gd3      Gd       0.17930    0.50486    0.58111    1.000
    O12      O        0.12290    0.56750    0.43630    1.000
    O13      O        0.31110    0.55324    0.71800    1.000
    O14      O        0.05660    0.45296    0.61640    1.000
    O15      O        0.10920    0.45188    0.42600    1.000
    O16      O        0.07390    0.56527    0.62970    1.000
    O17      O        0.30470    0.43736    0.66790    1.000
    C35      C        0.02020    0.57690    0.38720    1.000
    C36      C        0.37820    0.58120    0.79620    1.000
    C37      C        0.98590    0.62800    0.33370    1.000
    C38      C        0.39720    0.63300    0.76340    1.000
    O18      O        0.43010    0.56845    0.89660    1.000
    C39      C        0.88280    0.64840    0.32000    1.000
    C40      C        0.05910    0.65550    0.30520    1.000
    C41      C        0.48150    0.66380    0.84410    1.000
    C42      C        0.33190    0.65090    0.65280    1.000
    Gd4      Gd       0.54919    0.50676    0.99631    1.000
    H25      H        0.83300    0.62950    0.33760    1.000
    C43      C        0.85450    0.69720    0.27970    1.000
    H26      H        0.12800    0.64190    0.31450    1.000
    C44      C        0.02900    0.70330    0.26290    1.000
    H27      H        0.52560    0.65210    0.91710    1.000
    C45      C        0.49760    0.71130    0.81370    1.000
    H28      H        0.27730    0.63020    0.59960    1.000
    C46      C        0.34790    0.69890    0.62220    1.000
    O19      O        0.68750    0.57510    0.99130    1.000
    O20      O        0.61550    0.53280    0.85100    1.000
    O21      O        0.42170    0.45390    0.84510    1.000
    H29      H        0.78600    0.71110    0.27110    1.000
    C47      C        0.92690    0.72450    0.25300    1.000
    C48      C        0.09290    0.74000    0.22150    1.000
    C49      C        0.43310    0.72920    0.70380    1.000
    C50      C        0.58070    0.75120    0.88670    1.000
    H30      H        0.30340    0.71090    0.54950    1.000
    N2       N        0.69150    0.56600    0.90300    1.000
    C51      C        0.92240    0.77660    0.21580    1.000
    C52      C        0.09600    0.72190    0.11250    1.000
    C53      C        0.21210    0.75040    0.31440    1.000
    C54      C        0.01800    0.78660    0.19760    1.000
    C55      C        0.46510    0.78110    0.69720    1.000
    C56      C        0.70480    0.73240    0.92740    1.000
    C57      C        0.56070    0.76640    0.98660    1.000
    C58      C        0.55340    0.79390    0.80110    1.000
    O22      O        0.72980    0.58850    0.86100    1.000
    C59      C        0.84400    0.81500    0.19960    1.000
    H31      H        0.12660    0.74700    0.08190    1.000
    H32      H        0.01700    0.71500    0.06000    1.000
    H33      H        0.14130    0.69200    0.12610    1.000
    H34      H        0.24630    0.77640    0.28970    1.000
    H35      H        0.25630    0.72040    0.32580    1.000
    H36      H        0.21200    0.76000    0.38390    1.000
    C60      C        0.03670    0.83440    0.16760    1.000
    C61      C        0.42610    0.81440    0.60920    1.000
    H37      H        0.71620    0.72120    0.86450    1.000
    H38      H        0.71940    0.70550    0.97950    1.000
    H39      H        0.75710    0.75940    0.96440    1.000
    H40      H        0.60770    0.79480    0.02360    1.000
    H41      H        0.58070    0.73910    0.03870    1.000
    H42      H        0.48040    0.77470    0.96060    1.000
    C62      C        0.60220    0.84090    0.81610    1.000
    H43      H        0.78080    0.80900    0.21270    1.000
    C63      C        0.86020    0.86130    0.16460    1.000
    H44      H        0.10240    0.84130    0.15950    1.000
    C64      C        0.95750    0.87200    0.14980    1.000
    H45      H        0.36840    0.80500    0.53940    1.000
    C65      C        0.47150    0.86120    0.62360    1.000
    H46      H        0.66120    0.84990    0.88550    1.000
    C66      C        0.56250    0.87450    0.72680    1.000
    H47      H        0.80570    0.88610    0.15030    1.000
    C67      C        0.97470    0.92340    0.11530    1.000
    H48      H        0.44210    0.88440    0.56490    1.000
    C68      C        0.61900    0.92540    0.74060    1.000
    Gd5      Gd       0.17930    0.99514    0.08111    1.000
    O23      O        0.12290    0.93250    0.93630    1.000
    O24      O        0.31110    0.94676    0.21800    1.000
    O25      O        0.05660    0.04704    0.11640    1.000
    O26      O        0.10920    0.04812    0.92600    1.000
    O27      O        0.07390    0.93473    0.12970    1.000
    O28      O        0.30470    0.06264    0.16790    1.000
    C69      C        0.02020    0.92310    0.88720    1.000
    C70      C        0.37820    0.91880    0.29620    1.000
    C71      C        0.98590    0.87200    0.83370    1.000
    C72      C        0.39720    0.86700    0.26340    1.000
    O29      O        0.43010    0.93155    0.39660    1.000
    C73      C        0.88280    0.85160    0.82000    1.000
    C74      C        0.05910    0.84450    0.80520    1.000
    C75      C        0.48150    0.83620    0.34410    1.000
    C76      C        0.33190    0.84910    0.15280    1.000
    Gd6      Gd       0.54919    0.99324    0.49631    1.000
    H49      H        0.83300    0.87050    0.83760    1.000
    C77      C        0.85450    0.80280    0.77970    1.000
    H50      H        0.12800    0.85810    0.81450    1.000
    C78      C        0.02900    0.79670    0.76290    1.000
    H51      H        0.52560    0.84790    0.41710    1.000
    C79      C        0.49760    0.78870    0.31370    1.000
    H52      H        0.27730    0.86980    0.09960    1.000
    C80      C        0.34790    0.80110    0.12220    1.000
    O30      O        0.68750    0.92490    0.49130    1.000
    O31      O        0.61550    0.96720    0.35100    1.000
    O32      O        0.42170    0.04610    0.34510    1.000
    H53      H        0.78600    0.78890    0.77110    1.000
    C81      C        0.92690    0.77550    0.75300    1.000
    C82      C        0.09290    0.76000    0.72150    1.000
    C83      C        0.43310    0.77080    0.20380    1.000
    C84      C        0.58070    0.74880    0.38670    1.000
    H54      H        0.30340    0.78910    0.04950    1.000
    N3       N        0.69150    0.93400    0.40300    1.000
    C85      C        0.92240    0.72340    0.71580    1.000
    C86      C        0.09600    0.77810    0.61250    1.000
    C87      C        0.21210    0.74960    0.81440    1.000
    C88      C        0.01800    0.71340    0.69760    1.000
    C89      C        0.46510    0.71890    0.19720    1.000
    C90      C        0.70480    0.76760    0.42740    1.000
    C91      C        0.56070    0.73360    0.48660    1.000
    C92      C        0.55340    0.70610    0.30110    1.000
    O33      O        0.72980    0.91150    0.36100    1.000
    C93      C        0.84400    0.68500    0.69960    1.000
    H55      H        0.12660    0.75300    0.58190    1.000
    H56      H        0.01700    0.78500    0.56000    1.000
    H57      H        0.14130    0.80800    0.62610    1.000
    H58      H        0.24630    0.72360    0.78970    1.000
    H59      H        0.25630    0.77960    0.82580    1.000
    H60      H        0.21200    0.74000    0.88390    1.000
    C94      C        0.03670    0.66560    0.66760    1.000
    C95      C        0.42610    0.68560    0.10920    1.000
    H61      H        0.71620    0.77880    0.36450    1.000
    H62      H        0.71940    0.79450    0.47950    1.000
    H63      H        0.75710    0.74060    0.46440    1.000
    H64      H        0.60770    0.70520    0.52360    1.000
    H65      H        0.58070    0.76090    0.53870    1.000
    H66      H        0.48040    0.72530    0.46060    1.000
    C96      C        0.60220    0.65910    0.31610    1.000
    H67      H        0.78080    0.69100    0.71270    1.000
    C97      C        0.86020    0.63870    0.66460    1.000
    H68      H        0.10240    0.65870    0.65950    1.000
    C98      C        0.95750    0.62800    0.64980    1.000
    H69      H        0.36840    0.69500    0.03940    1.000
    C99      C        0.47150    0.63880    0.12360    1.000
    H70      H        0.66120    0.65010    0.38550    1.000
    C100     C        0.56250    0.62550    0.22680    1.000
    H71      H        0.80570    0.61390    0.65030    1.000
    C101     C        0.97470    0.57660    0.61530    1.000
    H72      H        0.44210    0.61560    0.06490    1.000
    C102     C        0.61900    0.57460    0.24060    1.000
    Gd7      Gd       0.82070    0.49514    0.41889    1.000
    O34      O        0.87710    0.43250    0.56370    1.000
    O35      O        0.68890    0.44676    0.28200    1.000
    O36      O        0.94340    0.54704    0.38360    1.000
    O37      O        0.89080    0.54812    0.57400    1.000
    O38      O        0.92610    0.43473    0.37030    1.000
    O39      O        0.69530    0.56264    0.33210    1.000
    C103     C        0.97980    0.42310    0.61280    1.000
    C104     C        0.62180    0.41880    0.20380    1.000
    C105     C        0.01410    0.37200    0.66630    1.000
    C106     C        0.60280    0.36700    0.23660    1.000
    O40      O        0.56990    0.43155    0.10340    1.000
    C107     C        0.11720    0.35160    0.68000    1.000
    C108     C        0.94090    0.34450    0.69480    1.000
    C109     C        0.51850    0.33620    0.15590    1.000
    C110     C        0.66810    0.34910    0.34720    1.000
    Gd8      Gd       0.45081    0.49324    0.00369    1.000
    H73      H        0.16700    0.37050    0.66240    1.000
    C111     C        0.14550    0.30280    0.72030    1.000
    H74      H        0.87200    0.35810    0.68550    1.000
    C112     C        0.97100    0.29670    0.73710    1.000
    H75      H        0.47440    0.34790    0.08290    1.000
    C113     C        0.50240    0.28870    0.18630    1.000
    H76      H        0.72270    0.36980    0.40040    1.000
    C114     C        0.65210    0.30110    0.37780    1.000
    O41      O        0.31250    0.42490    0.00870    1.000
    O42      O        0.38450    0.46720    0.14900    1.000
    O43      O        0.57830    0.54610    0.15490    1.000
    H77      H        0.21400    0.28890    0.72890    1.000
    C115     C        0.07310    0.27550    0.74700    1.000
    C116     C        0.90710    0.26000    0.77850    1.000
    C117     C        0.56690    0.27080    0.29620    1.000
    C118     C        0.41930    0.24880    0.11330    1.000
    H78      H        0.69660    0.28910    0.45050    1.000
    N4       N        0.30850    0.43400    0.09700    1.000
    C119     C        0.07760    0.22340    0.78420    1.000
    C120     C        0.90400    0.27810    0.88750    1.000
    C121     C        0.78790    0.24960    0.68560    1.000
    C122     C        0.98200    0.21340    0.80240    1.000
    C123     C        0.53490    0.21890    0.30280    1.000
    C124     C        0.29520    0.26760    0.07260    1.000
    C125     C        0.43930    0.23360    0.01340    1.000
    C126     C        0.44660    0.20610    0.19890    1.000
    O44      O        0.27020    0.41150    0.13900    1.000
    C127     C        0.15600    0.18500    0.80040    1.000
    H79      H        0.87340    0.25300    0.91810    1.000
    H80      H        0.98300    0.28500    0.94000    1.000
    H81      H        0.85870    0.30800    0.87390    1.000
    H82      H        0.75370    0.22360    0.71030    1.000
    H83      H        0.74370    0.27960    0.67420    1.000
    H84      H        0.78800    0.24000    0.61610    1.000
    C128     C        0.96330    0.16560    0.83240    1.000
    C129     C        0.57390    0.18560    0.39080    1.000
    H85      H        0.28380    0.27880    0.13550    1.000
    H86      H        0.28060    0.29450    0.02050    1.000
    H87      H        0.24290    0.24060    0.03560    1.000
    H88      H        0.39230    0.20520    0.97640    1.000
    H89      H        0.41930    0.26090    0.96130    1.000
    H90      H        0.51960    0.22530    0.03940    1.000
    C130     C        0.39780    0.15910    0.18390    1.000
    H91      H        0.21920    0.19100    0.78730    1.000
    C131     C        0.13980    0.13870    0.83540    1.000
    H92      H        0.89760    0.15870    0.84050    1.000
    C132     C        0.04250    0.12800    0.85020    1.000
    H93      H        0.63160    0.19500    0.46060    1.000
    C133     C        0.52850    0.13880    0.37640    1.000
    H94      H        0.33880    0.15010    0.11450    1.000
    C134     C        0.43750    0.12550    0.27320    1.000
    H95      H        0.19430    0.11390    0.84970    1.000
    C135     C        0.02530    0.07660    0.88470    1.000
    H96      H        0.55790    0.11560    0.43510    1.000
    C136     C        0.38100    0.07460    0.25940    1.000
