# CIF file generated by openbabel 3.1.0, see https://openbabel.org
data_I
_chemical_name_common 'image0'
_cell_length_a 25.938
_cell_length_b 18.158
_cell_length_c 16.7929
_cell_angle_alpha 90
_cell_angle_beta 116.945
_cell_angle_gamma 90
_space_group_name_H-M_alt 'P 1'
_space_group_name_Hall 'P 1'
loop_
    _symmetry_equiv_pos_as_xyz
    x,y,z
loop_
    _atom_site_label
    _atom_site_type_symbol
    _atom_site_fract_x
    _atom_site_fract_y
    _atom_site_fract_z
    _atom_site_occupancy
    Co1      Co       0.37050    0.72123    0.51337    1.000
    Co2      Co       0.29643    0.76828    0.29557    1.000
    Co3      Co       0.21186    0.81194    0.06896    1.000
    O1       O        0.37450    0.62200    0.46050    1.000
    O2       O        0.31430    0.65470    0.31860    1.000
    O3       O        0.28280    0.88130    0.27730    1.000
    O4       O        0.21580    0.90630    0.13600    1.000
    O5       O        0.45630    0.75130    0.52260    1.000
    O6       O        0.37380    0.79040    0.41430    1.000
    O7       O        0.72150    0.24080    0.17640    1.000
    O8       O        0.63390    0.27630    0.08270    1.000
    O9       O        0.34710    0.76700    0.22820    1.000
    O10      O        0.29550    0.81480    0.09100    1.000
    O11      O        0.78630    0.80420    0.97620    1.000
    O12      O        0.74370    0.72270    0.86470    1.000
    N1       N        0.19890    0.72360    0.97850    1.000
    N2       N        0.17940    0.86520    0.94310    1.000
    N3       N        0.35990    0.82390    0.56910    1.000
    N4       N        0.40440    0.69790    0.64940    1.000
    C1       C        0.33970    0.60880    0.38080    1.000
    C2       C        0.32720    0.52750    0.35780    1.000
    C3       C        0.34460    0.47570    0.42410    1.000
    H1       H        0.36450    0.49140    0.48460    1.000
    C4       C        0.33420    0.40120    0.40600    1.000
    H2       H        0.34710    0.36640    0.45340    1.000
    C5       C        0.30450    0.37780    0.31740    1.000
    C6       C        0.28670    0.42950    0.24820    1.000
    H3       H        0.26740    0.41360    0.18780    1.000
    C7       C        0.29710    0.50420    0.26760    1.000
    H4       H        0.28420    0.53930    0.22060    1.000
    C8       C        0.29340    0.30010    0.29710    1.000
    C9       C        0.28530    0.23560    0.28320    1.000
    C10      C        0.27520    0.15810    0.26750    1.000
    C11      C        0.30480    0.10760    0.33670    1.000
    H5       H        0.33040    0.12470    0.39480    1.000
    C12      C        0.29620    0.03110    0.31950    1.000
    H6       H        0.31640    0.99680    0.36600    1.000
    C13      C        0.25800    0.00590    0.23380    1.000
    C14      C        0.22730    0.05670    0.16700    1.000
    H7       H        0.20000    0.03970    0.10980    1.000
    C15      C        0.23590    0.13180    0.18270    1.000
    H8       H        0.21520    0.16570    0.13600    1.000
    C16      C        0.25140    0.92440    0.21430    1.000
    C17      C        0.43000    0.79010    0.45300    1.000
    C18      C        0.46150    0.83950    0.42000    1.000
    C19      C        0.52100    0.83080    0.44960    1.000
    H9       H        0.54060    0.79080    0.48790    1.000
    C20      C        0.55130    0.87920    0.42410    1.000
    H10      H        0.59150    0.87220    0.44380    1.000
    C21      C        0.52280    0.93940    0.36850    1.000
    C22      C        0.46330    0.94810    0.33970    1.000
    H11      H        0.44380    0.98860    0.30230    1.000
    C23      C        0.43210    0.89860    0.36460    1.000
    H12      H        0.39170    0.90500    0.34430    1.000
    C24      C        0.55320    0.99370    0.34390    1.000
    C25      C        0.57380    0.04260    0.31980    1.000
    C26      C        0.59870    0.09570    0.28300    1.000
    C27      C        0.65660    0.09120    0.30050    1.000
    H13      H        0.68140    0.05630    0.34260    1.000
    C28      C        0.67820    0.13740    0.25690    1.000
    H14      H        0.71710    0.13240    0.26680    1.000
    C29      C        0.64230    0.19150    0.19810    1.000
    C30      C        0.58600    0.19830    0.18340    1.000
    H15      H        0.56230    0.23550    0.14410    1.000
    C31      C        0.56250    0.15140    0.22540    1.000
    H16      H        0.52360    0.15680    0.21560    1.000
    C32      C        0.66660    0.24030    0.15080    1.000
    C33      C        0.34100    0.78860    0.15370    1.000
    C34      C        0.39160    0.77890    0.13320    1.000
    C35      C        0.38080    0.76820    0.04510    1.000
    H17      H        0.34200    0.76820    0.99930    1.000
    C36      C        0.42580    0.75770    0.02280    1.000
    H18      H        0.41780    0.75040    0.96230    1.000
    C37      C        0.48400    0.75780    0.09160    1.000
    C38      C        0.49430    0.77060    0.18030    1.000
    H19      H        0.53290    0.77220    0.22670    1.000
    C39      C        0.44880    0.78070    0.20030    1.000
    H20      H        0.45630    0.78900    0.26050    1.000
    C40      C        0.53020    0.74890    0.06740    1.000
    C41      C        0.56630    0.74440    0.04060    1.000
    C42      C        0.61030    0.74620    0.01030    1.000
    C43      C        0.61070    0.69810    0.94580    1.000
    H21      H        0.58180    0.66110    0.92160    1.000
    C44      C        0.65310    0.70370    0.91600    1.000
    H22      H        0.65210    0.67180    0.87040    1.000
    C45      C        0.69710    0.75670    0.95410    1.000
    C46      C        0.69740    0.80300    0.01920    1.000
    H23      H        0.72720    0.83870    0.04490    1.000
    C47      C        0.65460    0.79860    0.04880    1.000
    H24      H        0.65570    0.83070    0.09420    1.000
    C48      C        0.74550    0.76140    0.92760    1.000
    C49      C        0.21320    0.65390    0.00360    1.000
    H25      H        0.22880    0.64210    0.06530    1.000
    C50      C        0.20620    0.59740    0.94280    1.000
    H26      H        0.21710    0.54810    0.96230    1.000
    C51      C        0.18230    0.61600    0.85240    1.000
    H27      H        0.17650    0.57900    0.80910    1.000
    C52      C        0.16730    0.68840    0.82570    1.000
    H28      H        0.15130    0.70190    0.76450    1.000
    C53      C        0.17650    0.74090    0.89210    1.000
    C54      C        0.16580    0.82130    0.87100    1.000
    C55      C        0.14570    0.85020    0.78540    1.000
    H29      H        0.13540    0.81830    0.73570    1.000
    C56      C        0.14070    0.92590    0.77320    1.000
    H30      H        0.12740    0.94660    0.71520    1.000
    C57      C        0.15560    0.97070    0.84720    1.000
    H31      H        0.15280    0.02280    0.84070    1.000
    C58      C        0.17480    0.93850    0.93190    1.000
    H32      H        0.18470    0.96930    0.98250    1.000
    C59      C        0.33490    0.88450    0.52220    1.000
    H33      H        0.31920    0.88300    0.45900    1.000
    C60      C        0.33110    0.94980    0.56290    1.000
    H34      H        0.31250    0.99200    0.52830    1.000
    C61      C        0.35470    0.95140    0.65400    1.000
    H35      H        0.35300    0.99540    0.68340    1.000
    C62      C        0.38110    0.88930    0.70380    1.000
    H36      H        0.39740    0.88950    0.76710    1.000
    C63      C        0.38280    0.82580    0.65670    1.000
    C64      C        0.40820    0.75460    0.70280    1.000
    C65      C        0.43140    0.74520    0.79610    1.000
    H37      H        0.43310    0.78550    0.83320    1.000
    C66      C        0.45170    0.67600    0.83320    1.000
    H38      H        0.46890    0.66890    0.89600    1.000
    C67      C        0.44610    0.61680    0.77570    1.000
    H39      H        0.45820    0.56870    0.79860    1.000
    C68      C        0.42240    0.63050    0.68470    1.000
    H40      H        0.41880    0.59080    0.64560    1.000
    Co4      Co       0.87050    0.22123    0.51337    1.000
    Co5      Co       0.79643    0.26828    0.29557    1.000
    Co6      Co       0.71186    0.31194    0.06896    1.000
    O13      O        0.87450    0.12200    0.46050    1.000
    O14      O        0.81430    0.15470    0.31860    1.000
    O15      O        0.78280    0.38130    0.27730    1.000
    O16      O        0.71580    0.40630    0.13600    1.000
    O17      O        0.95630    0.25130    0.52260    1.000
    O18      O        0.87380    0.29040    0.41430    1.000
    O19      O        0.22150    0.74080    0.17640    1.000
    O20      O        0.13390    0.77630    0.08270    1.000
    O21      O        0.84710    0.26700    0.22820    1.000
    O22      O        0.79550    0.31480    0.09100    1.000
    O23      O        0.28630    0.30420    0.97620    1.000
    O24      O        0.24370    0.22270    0.86470    1.000
    N5       N        0.69890    0.22360    0.97850    1.000
    N6       N        0.67940    0.36520    0.94310    1.000
    N7       N        0.85990    0.32390    0.56910    1.000
    N8       N        0.90440    0.19790    0.64940    1.000
    C69      C        0.83970    0.10880    0.38080    1.000
    C70      C        0.82720    0.02750    0.35780    1.000
    C71      C        0.84460    0.97570    0.42410    1.000
    H41      H        0.86450    0.99140    0.48460    1.000
    C72      C        0.83420    0.90120    0.40600    1.000
    H42      H        0.84710    0.86640    0.45340    1.000
    C73      C        0.80450    0.87780    0.31740    1.000
    C74      C        0.78670    0.92950    0.24820    1.000
    H43      H        0.76740    0.91360    0.18780    1.000
    C75      C        0.79710    0.00420    0.26760    1.000
    H44      H        0.78420    0.03930    0.22060    1.000
    C76      C        0.79340    0.80010    0.29710    1.000
    C77      C        0.78530    0.73560    0.28320    1.000
    C78      C        0.77520    0.65810    0.26750    1.000
    C79      C        0.80480    0.60760    0.33670    1.000
    H45      H        0.83040    0.62470    0.39480    1.000
    C80      C        0.79620    0.53110    0.31950    1.000
    H46      H        0.81640    0.49680    0.36600    1.000
    C81      C        0.75800    0.50590    0.23380    1.000
    C82      C        0.72730    0.55670    0.16700    1.000
    H47      H        0.70000    0.53970    0.10980    1.000
    C83      C        0.73590    0.63180    0.18270    1.000
    H48      H        0.71520    0.66570    0.13600    1.000
    C84      C        0.75140    0.42440    0.21430    1.000
    C85      C        0.93000    0.29010    0.45300    1.000
    C86      C        0.96150    0.33950    0.42000    1.000
    C87      C        0.02100    0.33080    0.44960    1.000
    H49      H        0.04060    0.29080    0.48790    1.000
    C88      C        0.05130    0.37920    0.42410    1.000
    H50      H        0.09150    0.37220    0.44380    1.000
    C89      C        0.02280    0.43940    0.36850    1.000
    C90      C        0.96330    0.44810    0.33970    1.000
    H51      H        0.94380    0.48860    0.30230    1.000
    C91      C        0.93210    0.39860    0.36460    1.000
    H52      H        0.89170    0.40500    0.34430    1.000
    C92      C        0.05320    0.49370    0.34390    1.000
    C93      C        0.07380    0.54260    0.31980    1.000
    C94      C        0.09870    0.59570    0.28300    1.000
    C95      C        0.15660    0.59120    0.30050    1.000
    H53      H        0.18140    0.55630    0.34260    1.000
    C96      C        0.17820    0.63740    0.25690    1.000
    H54      H        0.21710    0.63240    0.26680    1.000
    C97      C        0.14230    0.69150    0.19810    1.000
    C98      C        0.08600    0.69830    0.18340    1.000
    H55      H        0.06230    0.73550    0.14410    1.000
    C99      C        0.06250    0.65140    0.22540    1.000
    H56      H        0.02360    0.65680    0.21560    1.000
    C100     C        0.16660    0.74030    0.15080    1.000
    C101     C        0.84100    0.28860    0.15370    1.000
    C102     C        0.89160    0.27890    0.13320    1.000
    C103     C        0.88080    0.26820    0.04510    1.000
    H57      H        0.84200    0.26820    0.99930    1.000
    C104     C        0.92580    0.25770    0.02280    1.000
    H58      H        0.91780    0.25040    0.96230    1.000
    C105     C        0.98400    0.25780    0.09160    1.000
    C106     C        0.99430    0.27060    0.18030    1.000
    H59      H        0.03290    0.27220    0.22670    1.000
    C107     C        0.94880    0.28070    0.20030    1.000
    H60      H        0.95630    0.28900    0.26050    1.000
    C108     C        0.03020    0.24890    0.06740    1.000
    C109     C        0.06630    0.24440    0.04060    1.000
    C110     C        0.11030    0.24620    0.01030    1.000
    C111     C        0.11070    0.19810    0.94580    1.000
    H61      H        0.08180    0.16110    0.92160    1.000
    C112     C        0.15310    0.20370    0.91600    1.000
    H62      H        0.15210    0.17180    0.87040    1.000
    C113     C        0.19710    0.25670    0.95410    1.000
    C114     C        0.19740    0.30300    0.01920    1.000
    H63      H        0.22720    0.33870    0.04490    1.000
    C115     C        0.15460    0.29860    0.04880    1.000
    H64      H        0.15570    0.33070    0.09420    1.000
    C116     C        0.24550    0.26140    0.92760    1.000
    C117     C        0.71320    0.15390    0.00360    1.000
    H65      H        0.72880    0.14210    0.06530    1.000
    C118     C        0.70620    0.09740    0.94280    1.000
    H66      H        0.71710    0.04810    0.96230    1.000
    C119     C        0.68230    0.11600    0.85240    1.000
    H67      H        0.67650    0.07900    0.80910    1.000
    C120     C        0.66730    0.18840    0.82570    1.000
    H68      H        0.65130    0.20190    0.76450    1.000
    C121     C        0.67650    0.24090    0.89210    1.000
    C122     C        0.66580    0.32130    0.87100    1.000
    C123     C        0.64570    0.35020    0.78540    1.000
    H69      H        0.63540    0.31830    0.73570    1.000
    C124     C        0.64070    0.42590    0.77320    1.000
    H70      H        0.62740    0.44660    0.71520    1.000
    C125     C        0.65560    0.47070    0.84720    1.000
    H71      H        0.65280    0.52280    0.84070    1.000
    C126     C        0.67480    0.43850    0.93190    1.000
    H72      H        0.68470    0.46930    0.98250    1.000
    C127     C        0.83490    0.38450    0.52220    1.000
    H73      H        0.81920    0.38300    0.45900    1.000
    C128     C        0.83110    0.44980    0.56290    1.000
    H74      H        0.81250    0.49200    0.52830    1.000
    C129     C        0.85470    0.45140    0.65400    1.000
    H75      H        0.85300    0.49540    0.68340    1.000
    C130     C        0.88110    0.38930    0.70380    1.000
    H76      H        0.89740    0.38950    0.76710    1.000
    C131     C        0.88280    0.32580    0.65670    1.000
    C132     C        0.90820    0.25460    0.70280    1.000
    C133     C        0.93140    0.24520    0.79610    1.000
    H77      H        0.93310    0.28550    0.83320    1.000
    C134     C        0.95170    0.17600    0.83320    1.000
    H78      H        0.96890    0.16890    0.89600    1.000
    C135     C        0.94610    0.11680    0.77570    1.000
    H79      H        0.95820    0.06870    0.79860    1.000
    C136     C        0.92240    0.13050    0.68470    1.000
    H80      H        0.91880    0.09080    0.64560    1.000
    Co7      Co       0.37050    0.27877    0.01337    1.000
    Co8      Co       0.29643    0.23172    0.79557    1.000
    Co9      Co       0.21186    0.18806    0.56896    1.000
    O25      O        0.37450    0.37800    0.96050    1.000
    O26      O        0.31430    0.34530    0.81860    1.000
    O27      O        0.28280    0.11870    0.77730    1.000
    O28      O        0.21580    0.09370    0.63600    1.000
    O29      O        0.45630    0.24870    0.02260    1.000
    O30      O        0.37380    0.20960    0.91430    1.000
    O31      O        0.72150    0.75920    0.67640    1.000
    O32      O        0.63390    0.72370    0.58270    1.000
    O33      O        0.34710    0.23300    0.72820    1.000
    O34      O        0.29550    0.18520    0.59100    1.000
    O35      O        0.78630    0.19580    0.47620    1.000
    O36      O        0.74370    0.27730    0.36470    1.000
    N9       N        0.19890    0.27640    0.47850    1.000
    N10      N        0.17940    0.13480    0.44310    1.000
    N11      N        0.35990    0.17610    0.06910    1.000
    N12      N        0.40440    0.30210    0.14940    1.000
    C137     C        0.33970    0.39120    0.88080    1.000
    C138     C        0.32720    0.47250    0.85780    1.000
    C139     C        0.34460    0.52430    0.92410    1.000
    H81      H        0.36450    0.50860    0.98460    1.000
    C140     C        0.33420    0.59880    0.90600    1.000
    H82      H        0.34710    0.63360    0.95340    1.000
    C141     C        0.30450    0.62220    0.81740    1.000
    C142     C        0.28670    0.57050    0.74820    1.000
    H83      H        0.26740    0.58640    0.68780    1.000
    C143     C        0.29710    0.49580    0.76760    1.000
    H84      H        0.28420    0.46070    0.72060    1.000
    C144     C        0.29340    0.69990    0.79710    1.000
    C145     C        0.28530    0.76440    0.78320    1.000
    C146     C        0.27520    0.84190    0.76750    1.000
    C147     C        0.30480    0.89240    0.83670    1.000
    H85      H        0.33040    0.87530    0.89480    1.000
    C148     C        0.29620    0.96890    0.81950    1.000
    H86      H        0.31640    0.00320    0.86600    1.000
    C149     C        0.25800    0.99410    0.73380    1.000
    C150     C        0.22730    0.94330    0.66700    1.000
    H87      H        0.20000    0.96030    0.60980    1.000
    C151     C        0.23590    0.86820    0.68270    1.000
    H88      H        0.21520    0.83430    0.63600    1.000
    C152     C        0.25140    0.07560    0.71430    1.000
    C153     C        0.43000    0.20990    0.95300    1.000
    C154     C        0.46150    0.16050    0.92000    1.000
    C155     C        0.52100    0.16920    0.94960    1.000
    H89      H        0.54060    0.20920    0.98790    1.000
    C156     C        0.55130    0.12080    0.92410    1.000
    H90      H        0.59150    0.12780    0.94380    1.000
    C157     C        0.52280    0.06060    0.86850    1.000
    C158     C        0.46330    0.05190    0.83970    1.000
    H91      H        0.44380    0.01140    0.80230    1.000
    C159     C        0.43210    0.10140    0.86460    1.000
    H92      H        0.39170    0.09500    0.84430    1.000
    C160     C        0.55320    0.00630    0.84390    1.000
    C161     C        0.57380    0.95740    0.81980    1.000
    C162     C        0.59870    0.90430    0.78300    1.000
    C163     C        0.65660    0.90880    0.80050    1.000
    H93      H        0.68140    0.94370    0.84260    1.000
    C164     C        0.67820    0.86260    0.75690    1.000
    H94      H        0.71710    0.86760    0.76680    1.000
    C165     C        0.64230    0.80850    0.69810    1.000
    C166     C        0.58600    0.80170    0.68340    1.000
    H95      H        0.56230    0.76450    0.64410    1.000
    C167     C        0.56250    0.84860    0.72540    1.000
    H96      H        0.52360    0.84320    0.71560    1.000
    C168     C        0.66660    0.75970    0.65080    1.000
    C169     C        0.34100    0.21140    0.65370    1.000
    C170     C        0.39160    0.22110    0.63320    1.000
    C171     C        0.38080    0.23180    0.54510    1.000
    H97      H        0.34200    0.23180    0.49930    1.000
    C172     C        0.42580    0.24230    0.52280    1.000
    H98      H        0.41780    0.24960    0.46230    1.000
    C173     C        0.48400    0.24220    0.59160    1.000
    C174     C        0.49430    0.22940    0.68030    1.000
    H99      H        0.53290    0.22780    0.72670    1.000
    C175     C        0.44880    0.21930    0.70030    1.000
    H100     H        0.45630    0.21100    0.76050    1.000
    C176     C        0.53020    0.25110    0.56740    1.000
    C177     C        0.56630    0.25560    0.54060    1.000
    C178     C        0.61030    0.25380    0.51030    1.000
    C179     C        0.61070    0.30190    0.44580    1.000
    H101     H        0.58180    0.33890    0.42160    1.000
    C180     C        0.65310    0.29630    0.41600    1.000
    H102     H        0.65210    0.32820    0.37040    1.000
    C181     C        0.69710    0.24330    0.45410    1.000
    C182     C        0.69740    0.19700    0.51920    1.000
    H103     H        0.72720    0.16130    0.54490    1.000
    C183     C        0.65460    0.20140    0.54880    1.000
    H104     H        0.65570    0.16930    0.59420    1.000
    C184     C        0.74550    0.23860    0.42760    1.000
    C185     C        0.21320    0.34610    0.50360    1.000
    H105     H        0.22880    0.35790    0.56530    1.000
    C186     C        0.20620    0.40260    0.44280    1.000
    H106     H        0.21710    0.45190    0.46230    1.000
    C187     C        0.18230    0.38400    0.35240    1.000
    H107     H        0.17650    0.42100    0.30910    1.000
    C188     C        0.16730    0.31160    0.32570    1.000
    H108     H        0.15130    0.29810    0.26450    1.000
    C189     C        0.17650    0.25910    0.39210    1.000
    C190     C        0.16580    0.17870    0.37100    1.000
    C191     C        0.14570    0.14980    0.28540    1.000
    H109     H        0.13540    0.18170    0.23570    1.000
    C192     C        0.14070    0.07410    0.27320    1.000
    H110     H        0.12740    0.05340    0.21520    1.000
    C193     C        0.15560    0.02930    0.34720    1.000
    H111     H        0.15280    0.97720    0.34070    1.000
    C194     C        0.17480    0.06150    0.43190    1.000
    H112     H        0.18470    0.03070    0.48250    1.000
    C195     C        0.33490    0.11550    0.02220    1.000
    H113     H        0.31920    0.11700    0.95900    1.000
    C196     C        0.33110    0.05020    0.06290    1.000
    H114     H        0.31250    0.00800    0.02830    1.000
    C197     C        0.35470    0.04860    0.15400    1.000
    H115     H        0.35300    0.00460    0.18340    1.000
    C198     C        0.38110    0.11070    0.20380    1.000
    H116     H        0.39740    0.11050    0.26710    1.000
    C199     C        0.38280    0.17420    0.15670    1.000
    C200     C        0.40820    0.24540    0.20280    1.000
    C201     C        0.43140    0.25480    0.29610    1.000
    H117     H        0.43310    0.21450    0.33320    1.000
    C202     C        0.45170    0.32400    0.33320    1.000
    H118     H        0.46890    0.33110    0.39600    1.000
    C203     C        0.44610    0.38320    0.27570    1.000
    H119     H        0.45820    0.43130    0.29860    1.000
    C204     C        0.42240    0.36950    0.18470    1.000
    H120     H        0.41880    0.40920    0.14560    1.000
    Co10     Co       0.87050    0.77877    0.01337    1.000
    Co11     Co       0.79643    0.73172    0.79557    1.000
    Co12     Co       0.71186    0.68806    0.56896    1.000
    O37      O        0.87450    0.87800    0.96050    1.000
    O38      O        0.81430    0.84530    0.81860    1.000
    O39      O        0.78280    0.61870    0.77730    1.000
    O40      O        0.71580    0.59370    0.63600    1.000
    O41      O        0.95630    0.74870    0.02260    1.000
    O42      O        0.87380    0.70960    0.91430    1.000
    O43      O        0.22150    0.25920    0.67640    1.000
    O44      O        0.13390    0.22370    0.58270    1.000
    O45      O        0.84710    0.73300    0.72820    1.000
    O46      O        0.79550    0.68520    0.59100    1.000
    O47      O        0.28630    0.69580    0.47620    1.000
    O48      O        0.24370    0.77730    0.36470    1.000
    N13      N        0.69890    0.77640    0.47850    1.000
    N14      N        0.67940    0.63480    0.44310    1.000
    N15      N        0.85990    0.67610    0.06910    1.000
    N16      N        0.90440    0.80210    0.14940    1.000
    C205     C        0.83970    0.89120    0.88080    1.000
    C206     C        0.82720    0.97250    0.85780    1.000
    C207     C        0.84460    0.02430    0.92410    1.000
    H121     H        0.86450    0.00860    0.98460    1.000
    C208     C        0.83420    0.09880    0.90600    1.000
    H122     H        0.84710    0.13360    0.95340    1.000
    C209     C        0.80450    0.12220    0.81740    1.000
    C210     C        0.78670    0.07050    0.74820    1.000
    H123     H        0.76740    0.08640    0.68780    1.000
    C211     C        0.79710    0.99580    0.76760    1.000
    H124     H        0.78420    0.96070    0.72060    1.000
    C212     C        0.79340    0.19990    0.79710    1.000
    C213     C        0.78530    0.26440    0.78320    1.000
    C214     C        0.77520    0.34190    0.76750    1.000
    C215     C        0.80480    0.39240    0.83670    1.000
    H125     H        0.83040    0.37530    0.89480    1.000
    C216     C        0.79620    0.46890    0.81950    1.000
    H126     H        0.81640    0.50320    0.86600    1.000
    C217     C        0.75800    0.49410    0.73380    1.000
    C218     C        0.72730    0.44330    0.66700    1.000
    H127     H        0.70000    0.46030    0.60980    1.000
    C219     C        0.73590    0.36820    0.68270    1.000
    H128     H        0.71520    0.33430    0.63600    1.000
    C220     C        0.75140    0.57560    0.71430    1.000
    C221     C        0.93000    0.70990    0.95300    1.000
    C222     C        0.96150    0.66050    0.92000    1.000
    C223     C        0.02100    0.66920    0.94960    1.000
    H129     H        0.04060    0.70920    0.98790    1.000
    C224     C        0.05130    0.62080    0.92410    1.000
    H130     H        0.09150    0.62780    0.94380    1.000
    C225     C        0.02280    0.56060    0.86850    1.000
    C226     C        0.96330    0.55190    0.83970    1.000
    H131     H        0.94380    0.51140    0.80230    1.000
    C227     C        0.93210    0.60140    0.86460    1.000
    H132     H        0.89170    0.59500    0.84430    1.000
    C228     C        0.05320    0.50630    0.84390    1.000
    C229     C        0.07380    0.45740    0.81980    1.000
    C230     C        0.09870    0.40430    0.78300    1.000
    C231     C        0.15660    0.40880    0.80050    1.000
    H133     H        0.18140    0.44370    0.84260    1.000
    C232     C        0.17820    0.36260    0.75690    1.000
    H134     H        0.21710    0.36760    0.76680    1.000
    C233     C        0.14230    0.30850    0.69810    1.000
    C234     C        0.08600    0.30170    0.68340    1.000
    H135     H        0.06230    0.26450    0.64410    1.000
    C235     C        0.06250    0.34860    0.72540    1.000
    H136     H        0.02360    0.34320    0.71560    1.000
    C236     C        0.16660    0.25970    0.65080    1.000
    C237     C        0.84100    0.71140    0.65370    1.000
    C238     C        0.89160    0.72110    0.63320    1.000
    C239     C        0.88080    0.73180    0.54510    1.000
    H137     H        0.84200    0.73180    0.49930    1.000
    C240     C        0.92580    0.74230    0.52280    1.000
    H138     H        0.91780    0.74960    0.46230    1.000
    C241     C        0.98400    0.74220    0.59160    1.000
    C242     C        0.99430    0.72940    0.68030    1.000
    H139     H        0.03290    0.72780    0.72670    1.000
    C243     C        0.94880    0.71930    0.70030    1.000
    H140     H        0.95630    0.71100    0.76050    1.000
    C244     C        0.03020    0.75110    0.56740    1.000
    C245     C        0.06630    0.75560    0.54060    1.000
    C246     C        0.11030    0.75380    0.51030    1.000
    C247     C        0.11070    0.80190    0.44580    1.000
    H141     H        0.08180    0.83890    0.42160    1.000
    C248     C        0.15310    0.79630    0.41600    1.000
    H142     H        0.15210    0.82820    0.37040    1.000
    C249     C        0.19710    0.74330    0.45410    1.000
    C250     C        0.19740    0.69700    0.51920    1.000
    H143     H        0.22720    0.66130    0.54490    1.000
    C251     C        0.15460    0.70140    0.54880    1.000
    H144     H        0.15570    0.66930    0.59420    1.000
    C252     C        0.24550    0.73860    0.42760    1.000
    C253     C        0.71320    0.84610    0.50360    1.000
    H145     H        0.72880    0.85790    0.56530    1.000
    C254     C        0.70620    0.90260    0.44280    1.000
    H146     H        0.71710    0.95190    0.46230    1.000
    C255     C        0.68230    0.88400    0.35240    1.000
    H147     H        0.67650    0.92100    0.30910    1.000
    C256     C        0.66730    0.81160    0.32570    1.000
    H148     H        0.65130    0.79810    0.26450    1.000
    C257     C        0.67650    0.75910    0.39210    1.000
    C258     C        0.66580    0.67870    0.37100    1.000
    C259     C        0.64570    0.64980    0.28540    1.000
    H149     H        0.63540    0.68170    0.23570    1.000
    C260     C        0.64070    0.57410    0.27320    1.000
    H150     H        0.62740    0.55340    0.21520    1.000
    C261     C        0.65560    0.52930    0.34720    1.000
    H151     H        0.65280    0.47720    0.34070    1.000
    C262     C        0.67480    0.56150    0.43190    1.000
    H152     H        0.68470    0.53070    0.48250    1.000
    C263     C        0.83490    0.61550    0.02220    1.000
    H153     H        0.81920    0.61700    0.95900    1.000
    C264     C        0.83110    0.55020    0.06290    1.000
    H154     H        0.81250    0.50800    0.02830    1.000
    C265     C        0.85470    0.54860    0.15400    1.000
    H155     H        0.85300    0.50460    0.18340    1.000
    C266     C        0.88110    0.61070    0.20380    1.000
    H156     H        0.89740    0.61050    0.26710    1.000
    C267     C        0.88280    0.67420    0.15670    1.000
    C268     C        0.90820    0.74540    0.20280    1.000
    C269     C        0.93140    0.75480    0.29610    1.000
    H157     H        0.93310    0.71450    0.33320    1.000
    C270     C        0.95170    0.82400    0.33320    1.000
    H158     H        0.96890    0.83110    0.39600    1.000
    C271     C        0.94610    0.88320    0.27570    1.000
    H159     H        0.95820    0.93130    0.29860    1.000
    C272     C        0.92240    0.86950    0.18470    1.000
    H160     H        0.91880    0.90920    0.14560    1.000
