# CIF file generated by openbabel 3.1.0, see https://openbabel.org
data_I
_chemical_name_common 'image0'
_cell_length_a 9.53
_cell_length_b 10.168
_cell_length_c 13.026
_cell_angle_alpha 111.005
_cell_angle_beta 105.569
_cell_angle_gamma 90.497
_space_group_name_H-M_alt 'P 1'
_space_group_name_Hall 'P 1'
loop_
    _symmetry_equiv_pos_as_xyz
    x,y,z
loop_
    _atom_site_label
    _atom_site_type_symbol
    _atom_site_fract_x
    _atom_site_fract_y
    _atom_site_fract_z
    _atom_site_occupancy
    C1       C        0.59370    0.22500    0.84770    1.000
    C2       C        0.57180    0.30870    0.78180    1.000
    H1       H        0.53750    0.26650    0.70210    1.000
    C3       C        0.60150    0.45670    0.83560    1.000
    C4       C        0.66080    0.51530    0.95410    1.000
    H2       H        0.68340    0.61320    0.98980    1.000
    C5       C        0.64850    0.28740    0.96540    1.000
    H3       H        0.65920    0.22990    0.00800    1.000
    C6       C        0.68850    0.43240    0.02320    1.000
    C7       C        0.75160    0.49700    0.14220    1.000
    C8       C        0.81020    0.54600    0.24400    1.000
    C9       C        0.87820    0.60620    0.36270    1.000
    C10      C        0.79550    0.65690    0.44160    1.000
    H4       H        0.69450    0.65470    0.41410    1.000
    C11      C        0.86170    0.70900    0.55780    1.000
    C12      C        0.01350    0.71740    0.60110    1.000
    H5       H        0.05840    0.75430    0.68000    1.000
    C13      C        0.09790    0.66970    0.52450    1.000
    C14      C        0.02840    0.61070    0.40910    1.000
    H6       H        0.08430    0.57170    0.35940    1.000
    C15      C        0.56130    0.06610    0.78880    1.000
    C16      C        0.57230    0.54490    0.76630    1.000
    C17      C        0.76880    0.75620    0.63880    1.000
    C18      C        0.26070    0.67530    0.56860    1.000
    O1       O        0.57560    0.99180    0.85000    1.000
    O2       O        0.52750    0.01030    0.68290    1.000
    O3       O        0.59960    0.68000    0.81860    1.000
    O4       O        0.52440    0.48430    0.65980    1.000
    O5       O        0.82570    0.84130    0.73710    1.000
    O6       O        0.63350    0.71230    0.59930    1.000
    O7       O        0.32390    0.75640    0.66970    1.000
    O8       O        0.32160    0.59600    0.49900    1.000
    Zn1      Zn       0.54071    0.79745    0.72617    1.000
    C19      C        0.40630    0.77500    0.15230    1.000
    C20      C        0.42820    0.69130    0.21820    1.000
    H7       H        0.46250    0.73350    0.29790    1.000
    C21      C        0.39850    0.54330    0.16440    1.000
    C22      C        0.33920    0.48470    0.04590    1.000
    H8       H        0.31660    0.38680    0.01020    1.000
    C23      C        0.35150    0.71260    0.03460    1.000
    H9       H        0.34080    0.77010    0.99200    1.000
    C24      C        0.31150    0.56760    0.97680    1.000
    C25      C        0.24840    0.50300    0.85780    1.000
    C26      C        0.18980    0.45400    0.75600    1.000
    C27      C        0.12180    0.39380    0.63730    1.000
    C28      C        0.20450    0.34310    0.55840    1.000
    H10      H        0.30550    0.34530    0.58590    1.000
    C29      C        0.13830    0.29100    0.44220    1.000
    C30      C        0.98650    0.28260    0.39890    1.000
    H11      H        0.94160    0.24570    0.32000    1.000
    C31      C        0.90210    0.33030    0.47550    1.000
    C32      C        0.97160    0.38930    0.59090    1.000
    H12      H        0.91570    0.42830    0.64060    1.000
    C33      C        0.43870    0.93390    0.21120    1.000
    C34      C        0.42770    0.45510    0.23370    1.000
    C35      C        0.23120    0.24380    0.36120    1.000
    C36      C        0.73930    0.32470    0.43140    1.000
    O9       O        0.42440    0.00820    0.15000    1.000
    O10      O        0.47250    0.98970    0.31710    1.000
    O11      O        0.40040    0.32000    0.18140    1.000
    O12      O        0.47560    0.51570    0.34020    1.000
    O13      O        0.17430    0.15870    0.26290    1.000
    O14      O        0.36650    0.28770    0.40070    1.000
    O15      O        0.67610    0.24360    0.33030    1.000
    O16      O        0.67840    0.40400    0.50100    1.000
    Zn2      Zn       0.45929    0.20255    0.27383    1.000
    Zn3      Zn       0.50000    0.50000    0.50000    1.000
