# CIF file generated by openbabel 3.1.0, see https://openbabel.org
data_I
_chemical_name_common 'image0'
_cell_length_a 21.075
_cell_length_b 7.0239
_cell_length_c 31.99
_cell_angle_alpha 90
_cell_angle_beta 104.356
_cell_angle_gamma 90
_space_group_name_H-M_alt 'P 1'
_space_group_name_Hall 'P 1'
loop_
    _symmetry_equiv_pos_as_xyz
    x,y,z
loop_
    _atom_site_label
    _atom_site_type_symbol
    _atom_site_fract_x
    _atom_site_fract_y
    _atom_site_fract_z
    _atom_site_occupancy
    Mn1      Mn       0.30068    0.11129    0.25054    1.000
    Mn2      Mn       0.24495    0.60247    0.23269    1.000
    O1       O        0.34489    0.01570    0.20062    1.000
    O2       O        0.20951    0.13470    0.20509    1.000
    O3       O        0.33549    0.40600    0.23780    1.000
    O4       O        0.27833    0.76300    0.18550    1.000
    O5       O        0.20653    0.03590    0.77883    1.000
    C1       C        0.13460    0.08000    0.84099    1.000
    H1       H        0.11550    0.00620    0.81700    1.000
    C2       C        0.32150    0.87360    0.17817    1.000
    C3       C        0.29230    0.58200    0.03045    1.000
    O6       O        0.19827    0.42670    0.17720    1.000
    O7       O        0.38471    0.01690    0.30199    1.000
    C4       C        0.34800    0.82740    0.13973    1.000
    C5       C        0.19150    0.18010    0.84238    1.000
    O8       O        0.30899    0.79950    0.28008    1.000
    C6       C        0.41070    0.88270    0.13917    1.000
    H2       H        0.43590    0.95400    0.16170    1.000
    C7       C        0.53570    0.85010    0.48701    1.000
    C8       C        0.35850    0.86290    0.30764    1.000
    N1       N        0.42608    0.40470    0.21191    1.000
    C9       C        0.47100    0.88790    0.46343    1.000
    C10      C        0.38270    0.75860    0.34904    1.000
    C11      C        0.26560    0.39930    0.03157    1.000
    C12      C        0.33270    0.67970    0.06925    1.000
    C13      C        0.19240    0.29890    0.91342    1.000
    C14      C        0.24960    0.59110    0.95197    1.000
    C15      C        0.96300    0.37960    0.02015    1.000
    C16      C        0.03080    0.36810    0.03094    1.000
    C17      C        0.30960    0.72400    0.10517    1.000
    H3       H        0.26790    0.68440    0.10630    1.000
    C18      C        0.18760    0.25260    0.17448    1.000
    C19      C        0.22490    0.40680    0.95291    1.000
    C20      C        0.10600    0.09030    0.87563    1.000
    H4       H        0.06750    0.02390    0.87480    1.000
    C21      C        0.21930    0.28950    0.87799    1.000
    H5       H        0.25700    0.35880    0.87830    1.000
    C22      C        0.41760    0.86180    0.38482    1.000
    H6       H        0.42720    0.98950    0.38180    1.000
    C23      C        0.10980    0.29920    0.10148    1.000
    H7       H        0.11510    0.42990    0.10550    1.000
    C24      C        0.39720    0.73270    0.07003    1.000
    H8       H        0.41440    0.70130    0.04680    1.000
    C25      C        0.06760    0.23140    0.06426    1.000
    C26      C        0.28220    0.67350    0.99033    1.000
    H9       H        0.29850    0.79620    0.98960    1.000
    C27      C        0.14470    0.17490    0.13328    1.000
    C28      C        0.22270    0.17170    0.80499    1.000
    C29      C        0.36340    0.41510    0.20724    1.000
    H10      H        0.33710    0.43040    0.17940    1.000
    C30      C        0.43780    0.77380    0.42485    1.000
    C31      C        0.56260    0.96330    0.52294    1.000
    H11      H        0.60520    0.93780    0.53860    1.000
    C32      C        0.42420    0.58000    0.42766    1.000
    H12      H        0.43820    0.51820    0.45410    1.000
    C33      C        0.13470    0.19950    0.91152    1.000
    H13      H        0.11520    0.20620    0.93450    1.000
    C34      C        0.36980    0.56740    0.35284    1.000
    H14      H        0.34710    0.49900    0.32890    1.000
    C35      C        0.93410    0.51250    0.98897    1.000
    H15      H        0.88860    0.52100    0.98120    1.000
    C36      C        0.39080    0.47850    0.39227    1.000
    H16      H        0.38220    0.34980    0.39500    1.000
    C37      C        0.09690    0.91170    0.08825    1.000
    H17      H        0.09290    0.78120    0.08340    1.000
    C38      C        0.06130    0.03750    0.05828    1.000
    H18      H        0.03250    0.99030    0.03360    1.000
    C39      C        0.57830    0.70430    0.47273    1.000
    H19      H        0.56030    0.57970    0.47410    1.000
    H20      H        0.62170    0.70950    0.49130    1.000
    H21      H        0.58020    0.73070    0.44360    1.000
    C40      C        0.23320    0.31620    0.99290    1.000
    H22      H        0.21620    0.19440    0.99350    1.000
    C41      C        0.43550    0.83060    0.10459    1.000
    H23      H        0.47840    0.86200    0.10470    1.000
    C42      C        0.13860    0.98150    0.12568    1.000
    H24      H        0.16270    0.89700    0.14590    1.000
    C43      C        0.27450    0.28380    0.07238    1.000
    H25      H        0.26100    0.15490    0.06520    1.000
    H26      H        0.24830    0.33750    0.09010    1.000
    H27      H        0.31970    0.28570    0.08790    1.000
    C44      C        0.23970    0.71360    0.91113    1.000
    H28      H        0.23780    0.84540    0.91860    1.000
    H29      H        0.19960    0.67790    0.89110    1.000
    H30      H        0.27570    0.69400    0.89820    1.000
    C45      C        0.45540    0.40440    0.17489    1.000
    H31      H        0.47400    0.28140    0.17230    1.000
    H32      H        0.48920    0.49940    0.17900    1.000
    H33      H        0.42230    0.43200    0.14900    1.000
    C46      C        0.46810    0.37150    0.25470    1.000
    H34      H        0.45780    0.46150    0.27460    1.000
    H35      H        0.51310    0.38640    0.25390    1.000
    H36      H        0.46120    0.24460    0.26380    1.000
    C47      C        0.91960    0.26140    0.04130    1.000
    H37      H        0.93230    0.28080    0.07190    1.000
    H38      H        0.92420    0.12920    0.03500    1.000
    H39      H        0.87480    0.29930    0.03030    1.000
    O9       O        0.26405    0.29650    0.80270    1.000
    Mn3      Mn       0.69932    0.61129    0.24946    1.000
    Mn4      Mn       0.75505    0.10247    0.26732    1.000
    O10      O        0.65511    0.51570    0.29938    1.000
    O11      O        0.79049    0.63470    0.29491    1.000
    O12      O        0.66451    0.90600    0.26220    1.000
    O13      O        0.72167    0.26300    0.31450    1.000
    O14      O        0.79347    0.53590    0.72117    1.000
    C48      C        0.86540    0.58000    0.65901    1.000
    H40      H        0.88450    0.50620    0.68300    1.000
    C49      C        0.67850    0.37360    0.32183    1.000
    C50      C        0.70770    0.08200    0.46955    1.000
    O15      O        0.80173    0.92670    0.32280    1.000
    O16      O        0.61529    0.51690    0.19801    1.000
    C51      C        0.65200    0.32740    0.36027    1.000
    C52      C        0.80850    0.68010    0.65762    1.000
    O17      O        0.69101    0.29950    0.21992    1.000
    C53      C        0.58930    0.38270    0.36083    1.000
    H41      H        0.56410    0.45400    0.33830    1.000
    C54      C        0.46430    0.35010    0.01299    1.000
    C55      C        0.64150    0.36290    0.19236    1.000
    N2       N        0.57392    0.90470    0.28809    1.000
    C56      C        0.52900    0.38790    0.03657    1.000
    C57      C        0.61730    0.25860    0.15096    1.000
    C58      C        0.73440    0.89930    0.46843    1.000
    C59      C        0.66730    0.17970    0.43075    1.000
    C60      C        0.80760    0.79890    0.58658    1.000
    C61      C        0.75040    0.09110    0.54803    1.000
    C62      C        0.03700    0.87960    0.47985    1.000
    C63      C        0.96920    0.86810    0.46906    1.000
    C64      C        0.69040    0.22400    0.39483    1.000
    H42      H        0.73210    0.18440    0.39370    1.000
    C65      C        0.81240    0.75260    0.32552    1.000
    C66      C        0.77510    0.90680    0.54709    1.000
    C67      C        0.89400    0.59030    0.62437    1.000
    H43      H        0.93250    0.52390    0.62520    1.000
    C68      C        0.78070    0.78950    0.62201    1.000
    H44      H        0.74300    0.85880    0.62170    1.000
    C69      C        0.58240    0.36180    0.11518    1.000
    H45      H        0.57280    0.48950    0.11820    1.000
    C70      C        0.89020    0.79920    0.39852    1.000
    H46      H        0.88490    0.92990    0.39450    1.000
    C71      C        0.60280    0.23270    0.42997    1.000
    H47      H        0.58560    0.20130    0.45320    1.000
    C72      C        0.93240    0.73140    0.43574    1.000
    C73      C        0.71780    0.17350    0.50967    1.000
    H48      H        0.70150    0.29620    0.51040    1.000
    C74      C        0.85530    0.67490    0.36672    1.000
    C75      C        0.77730    0.67170    0.69501    1.000
    C76      C        0.63660    0.91510    0.29276    1.000
    H49      H        0.66290    0.93040    0.32060    1.000
    C77      C        0.56220    0.27380    0.07515    1.000
    C78      C        0.43740    0.46330    0.97706    1.000
    H50      H        0.39480    0.43780    0.96140    1.000
    C79      C        0.57580    0.08000    0.07234    1.000
    H51      H        0.56180    0.01820    0.04590    1.000
    C80      C        0.86530    0.69950    0.58848    1.000
    H52      H        0.88480    0.70620    0.56550    1.000
    C81      C        0.63020    0.06740    0.14716    1.000
    H53      H        0.65290    0.99900    0.17110    1.000
    C82      C        0.06590    0.01250    0.51103    1.000
    H54      H        0.11140    0.02100    0.51880    1.000
    C83      C        0.60920    0.97850    0.10773    1.000
    H55      H        0.61780    0.84980    0.10500    1.000
    C84      C        0.90310    0.41170    0.41175    1.000
    H56      H        0.90710    0.28120    0.41660    1.000
    C85      C        0.93870    0.53750    0.44172    1.000
    H57      H        0.96750    0.49030    0.46640    1.000
    C86      C        0.42170    0.20430    0.02727    1.000
    H58      H        0.43970    0.07970    0.02590    1.000
    H59      H        0.37830    0.20950    0.00870    1.000
    H60      H        0.41980    0.23070    0.05640    1.000
    C87      C        0.76680    0.81620    0.50710    1.000
    H61      H        0.78380    0.69440    0.50650    1.000
    C88      C        0.56450    0.33060    0.39541    1.000
    H62      H        0.52160    0.36200    0.39530    1.000
    C89      C        0.86140    0.48150    0.37432    1.000
    H63      H        0.83730    0.39700    0.35410    1.000
    C90      C        0.72550    0.78380    0.42762    1.000
    H64      H        0.73900    0.65490    0.43480    1.000
    H65      H        0.75170    0.83750    0.40990    1.000
    H66      H        0.68030    0.78570    0.41210    1.000
    C91      C        0.76030    0.21360    0.58887    1.000
    H67      H        0.76220    0.34540    0.58140    1.000
    H68      H        0.80040    0.17790    0.60890    1.000
    H69      H        0.72430    0.19400    0.60180    1.000
    C92      C        0.54460    0.90440    0.32511    1.000
    H70      H        0.52600    0.78140    0.32770    1.000
    H71      H        0.51080    0.99940    0.32100    1.000
    H72      H        0.57770    0.93200    0.35100    1.000
    C93      C        0.53190    0.87150    0.24530    1.000
    H73      H        0.54220    0.96150    0.22540    1.000
    H74      H        0.48690    0.88640    0.24610    1.000
    H75      H        0.53880    0.74460    0.23620    1.000
    C94      C        0.08040    0.76140    0.45870    1.000
    H76      H        0.06770    0.78080    0.42810    1.000
    H77      H        0.07580    0.62920    0.46500    1.000
    H78      H        0.12520    0.79930    0.46970    1.000
    O18      O        0.73595    0.79650    0.69730    1.000
    Mn5      Mn       0.69932    0.88871    0.74946    1.000
    Mn6      Mn       0.75505    0.39753    0.76732    1.000
    O19      O        0.65511    0.98430    0.79938    1.000
    O20      O        0.79049    0.86530    0.79491    1.000
    O21      O        0.66451    0.59400    0.76220    1.000
    O22      O        0.72167    0.23700    0.81450    1.000
    O23      O        0.79347    0.96410    0.22117    1.000
    C95      C        0.86540    0.92000    0.15901    1.000
    H79      H        0.88450    0.99380    0.18300    1.000
    C96      C        0.67850    0.12640    0.82183    1.000
    C97      C        0.70770    0.41800    0.96955    1.000
    O24      O        0.80173    0.57330    0.82280    1.000
    O25      O        0.61529    0.98310    0.69801    1.000
    C98      C        0.65200    0.17260    0.86027    1.000
    C99      C        0.80850    0.81990    0.15762    1.000
    O26      O        0.69101    0.20050    0.71992    1.000
    C100     C        0.58930    0.11730    0.86083    1.000
    H80      H        0.56410    0.04600    0.83830    1.000
    C101     C        0.46430    0.14990    0.51299    1.000
    C102     C        0.64150    0.13710    0.69236    1.000
    N3       N        0.57392    0.59530    0.78809    1.000
    C103     C        0.52900    0.11210    0.53657    1.000
    C104     C        0.61730    0.24140    0.65096    1.000
    C105     C        0.73440    0.60070    0.96843    1.000
    C106     C        0.66730    0.32030    0.93075    1.000
    C107     C        0.80760    0.70110    0.08658    1.000
    C108     C        0.75040    0.40890    0.04803    1.000
    C109     C        0.03700    0.62040    0.97985    1.000
    C110     C        0.96920    0.63190    0.96906    1.000
    C111     C        0.69040    0.27600    0.89483    1.000
    H81      H        0.73210    0.31560    0.89370    1.000
    C112     C        0.81240    0.74740    0.82552    1.000
    C113     C        0.77510    0.59320    0.04709    1.000
    C114     C        0.89400    0.90970    0.12437    1.000
    H82      H        0.93250    0.97610    0.12520    1.000
    C115     C        0.78070    0.71050    0.12201    1.000
    H83      H        0.74300    0.64120    0.12170    1.000
    C116     C        0.58240    0.13820    0.61518    1.000
    H84      H        0.57280    0.01050    0.61820    1.000
    C117     C        0.89020    0.70080    0.89852    1.000
    H85      H        0.88490    0.57010    0.89450    1.000
    C118     C        0.60280    0.26730    0.92997    1.000
    H86      H        0.58560    0.29870    0.95320    1.000
    C119     C        0.93240    0.76860    0.93574    1.000
    C120     C        0.71780    0.32650    0.00967    1.000
    H87      H        0.70150    0.20380    0.01040    1.000
    C121     C        0.85530    0.82510    0.86672    1.000
    C122     C        0.77730    0.82830    0.19501    1.000
    C123     C        0.63660    0.58490    0.79276    1.000
    H88      H        0.66290    0.56960    0.82060    1.000
    C124     C        0.56220    0.22620    0.57515    1.000
    C125     C        0.43740    0.03670    0.47706    1.000
    H89      H        0.39480    0.06220    0.46140    1.000
    C126     C        0.57580    0.42000    0.57234    1.000
    H90      H        0.56180    0.48180    0.54590    1.000
    C127     C        0.86530    0.80050    0.08848    1.000
    H91      H        0.88480    0.79380    0.06550    1.000
    C128     C        0.63020    0.43260    0.64716    1.000
    H92      H        0.65290    0.50100    0.67110    1.000
    C129     C        0.06590    0.48750    0.01103    1.000
    H93      H        0.11140    0.47900    0.01880    1.000
    C130     C        0.60920    0.52150    0.60773    1.000
    H94      H        0.61780    0.65020    0.60500    1.000
    C131     C        0.90310    0.08830    0.91175    1.000
    H95      H        0.90710    0.21880    0.91660    1.000
    C132     C        0.93870    0.96250    0.94172    1.000
    H96      H        0.96750    0.00970    0.96640    1.000
    C133     C        0.42170    0.29570    0.52727    1.000
    H97      H        0.43970    0.42030    0.52590    1.000
    H98      H        0.37830    0.29050    0.50870    1.000
    H99      H        0.41980    0.26930    0.55640    1.000
    C134     C        0.76680    0.68380    0.00710    1.000
    H100     H        0.78380    0.80560    0.00650    1.000
    C135     C        0.56450    0.16940    0.89541    1.000
    H101     H        0.52160    0.13800    0.89530    1.000
    C136     C        0.86140    0.01850    0.87432    1.000
    H102     H        0.83730    0.10300    0.85410    1.000
    C137     C        0.72550    0.71620    0.92762    1.000
    H103     H        0.73900    0.84510    0.93480    1.000
    H104     H        0.75170    0.66250    0.90990    1.000
    H105     H        0.68030    0.71430    0.91210    1.000
    C138     C        0.76030    0.28640    0.08887    1.000
    H106     H        0.76220    0.15460    0.08140    1.000
    H107     H        0.80040    0.32210    0.10890    1.000
    H108     H        0.72430    0.30600    0.10180    1.000
    C139     C        0.54460    0.59560    0.82511    1.000
    H109     H        0.52600    0.71860    0.82770    1.000
    H110     H        0.51080    0.50060    0.82100    1.000
    H111     H        0.57770    0.56800    0.85100    1.000
    C140     C        0.53190    0.62850    0.74530    1.000
    H112     H        0.54220    0.53850    0.72540    1.000
    H113     H        0.48690    0.61360    0.74610    1.000
    H114     H        0.53880    0.75540    0.73620    1.000
    C141     C        0.08040    0.73860    0.95870    1.000
    H115     H        0.06770    0.71920    0.92810    1.000
    H116     H        0.07580    0.87080    0.96500    1.000
    H117     H        0.12520    0.70070    0.96970    1.000
    O27      O        0.73595    0.70350    0.19730    1.000
    Mn7      Mn       0.30068    0.38871    0.75054    1.000
    Mn8      Mn       0.24495    0.89753    0.73269    1.000
    O28      O        0.34489    0.48430    0.70062    1.000
    O29      O        0.20951    0.36530    0.70509    1.000
    O30      O        0.33549    0.09400    0.73780    1.000
    O31      O        0.27833    0.73700    0.68550    1.000
    O32      O        0.20653    0.46410    0.27883    1.000
    C142     C        0.13460    0.42000    0.34099    1.000
    H118     H        0.11550    0.49380    0.31700    1.000
    C143     C        0.32150    0.62640    0.67817    1.000
    C144     C        0.29230    0.91800    0.53045    1.000
    O33      O        0.19827    0.07330    0.67720    1.000
    O34      O        0.38471    0.48310    0.80199    1.000
    C145     C        0.34800    0.67260    0.63973    1.000
    C146     C        0.19150    0.31990    0.34238    1.000
    O35      O        0.30899    0.70050    0.78008    1.000
    C147     C        0.41070    0.61730    0.63917    1.000
    H119     H        0.43590    0.54600    0.66170    1.000
    C148     C        0.53570    0.64990    0.98701    1.000
    C149     C        0.35850    0.63710    0.80764    1.000
    N4       N        0.42608    0.09530    0.71191    1.000
    C150     C        0.47100    0.61210    0.96343    1.000
    C151     C        0.38270    0.74140    0.84904    1.000
    C152     C        0.26560    0.10070    0.53157    1.000
    C153     C        0.33270    0.82030    0.56925    1.000
    C154     C        0.19240    0.20110    0.41342    1.000
    C155     C        0.24960    0.90890    0.45197    1.000
    C156     C        0.96300    0.12040    0.52015    1.000
    C157     C        0.03080    0.13190    0.53094    1.000
    C158     C        0.30960    0.77600    0.60517    1.000
    H120     H        0.26790    0.81560    0.60630    1.000
    C159     C        0.18760    0.24740    0.67448    1.000
    C160     C        0.22490    0.09320    0.45291    1.000
    C161     C        0.10600    0.40970    0.37563    1.000
    H121     H        0.06750    0.47610    0.37480    1.000
    C162     C        0.21930    0.21050    0.37799    1.000
    H122     H        0.25700    0.14120    0.37830    1.000
    C163     C        0.41760    0.63820    0.88482    1.000
    H123     H        0.42720    0.51050    0.88180    1.000
    C164     C        0.10980    0.20080    0.60148    1.000
    H124     H        0.11510    0.07010    0.60550    1.000
    C165     C        0.39720    0.76730    0.57003    1.000
    H125     H        0.41440    0.79870    0.54680    1.000
    C166     C        0.06760    0.26860    0.56426    1.000
    C167     C        0.28220    0.82650    0.49033    1.000
    H126     H        0.29850    0.70380    0.48960    1.000
    C168     C        0.14470    0.32510    0.63328    1.000
    C169     C        0.22270    0.32830    0.30499    1.000
    C170     C        0.36340    0.08490    0.70724    1.000
    H127     H        0.33710    0.06960    0.67940    1.000
    C171     C        0.43780    0.72620    0.92485    1.000
    C172     C        0.56260    0.53670    0.02294    1.000
    H128     H        0.60520    0.56220    0.03860    1.000
    C173     C        0.42420    0.92000    0.92766    1.000
    H129     H        0.43820    0.98180    0.95410    1.000
    C174     C        0.13470    0.30050    0.41152    1.000
    H130     H        0.11520    0.29380    0.43450    1.000
    C175     C        0.36980    0.93260    0.85284    1.000
    H131     H        0.34710    0.00100    0.82890    1.000
    C176     C        0.93410    0.98750    0.48897    1.000
    H132     H        0.88860    0.97900    0.48120    1.000
    C177     C        0.39080    0.02150    0.89227    1.000
    H133     H        0.38220    0.15020    0.89500    1.000
    C178     C        0.09690    0.58830    0.58825    1.000
    H134     H        0.09290    0.71880    0.58340    1.000
    C179     C        0.06130    0.46250    0.55828    1.000
    H135     H        0.03250    0.50970    0.53360    1.000
    C180     C        0.57830    0.79570    0.97273    1.000
    H136     H        0.56030    0.92030    0.97410    1.000
    H137     H        0.62170    0.79050    0.99130    1.000
    H138     H        0.58020    0.76930    0.94360    1.000
    C181     C        0.23320    0.18380    0.49290    1.000
    H139     H        0.21620    0.30560    0.49350    1.000
    C182     C        0.43550    0.66940    0.60459    1.000
    H140     H        0.47840    0.63800    0.60470    1.000
    C183     C        0.13860    0.51850    0.62568    1.000
    H141     H        0.16270    0.60300    0.64590    1.000
    C184     C        0.27450    0.21620    0.57238    1.000
    H142     H        0.26100    0.34510    0.56520    1.000
    H143     H        0.24830    0.16250    0.59010    1.000
    H144     H        0.31970    0.21430    0.58790    1.000
    C185     C        0.23970    0.78640    0.41113    1.000
    H145     H        0.23780    0.65460    0.41860    1.000
    H146     H        0.19960    0.82210    0.39110    1.000
    H147     H        0.27570    0.80600    0.39820    1.000
    C186     C        0.45540    0.09560    0.67489    1.000
    H148     H        0.47400    0.21860    0.67230    1.000
    H149     H        0.48920    0.00060    0.67900    1.000
    H150     H        0.42230    0.06800    0.64900    1.000
    C187     C        0.46810    0.12850    0.75470    1.000
    H151     H        0.45780    0.03850    0.77460    1.000
    H152     H        0.51310    0.11360    0.75390    1.000
    H153     H        0.46120    0.25540    0.76380    1.000
    C188     C        0.91960    0.23860    0.54130    1.000
    H154     H        0.93230    0.21920    0.57190    1.000
    H155     H        0.92420    0.37080    0.53500    1.000
    H156     H        0.87480    0.20070    0.53030    1.000
    O36      O        0.26405    0.20350    0.30270    1.000
