# CIF file generated by openbabel 3.1.0, see https://openbabel.org
data_I
_chemical_name_common 'image0'
_cell_length_a 12.78
_cell_length_b 10.494
_cell_length_c 15.87
_cell_angle_alpha 90
_cell_angle_beta 109.31
_cell_angle_gamma 90
_space_group_name_H-M_alt 'P 1'
_space_group_name_Hall 'P 1'
loop_
    _symmetry_equiv_pos_as_xyz
    x,y,z
loop_
    _atom_site_label
    _atom_site_type_symbol
    _atom_site_fract_x
    _atom_site_fract_y
    _atom_site_fract_z
    _atom_site_occupancy
    Cd1      Cd       0.63880    0.53251    0.88754    1.000
    N1       N        0.73630    0.43210    0.03130    1.000
    N2       N        0.81500    0.46970    0.89360    1.000
    N3       N        0.96860    0.35280    0.95090    1.000
    C1       C        0.56700    0.45820    0.69210    1.000
    C2       C        0.52860    0.47770    0.59230    1.000
    C3       C        0.56210    0.58800    0.55910    1.000
    H1       H        0.60330    0.64800    0.59960    1.000
    C4       C        0.46310    0.38770    0.53130    1.000
    C5       C        0.41950    0.26680    0.55960    1.000
    C6       C        0.08230    0.91560    0.04210    1.000
    H2       H        0.13850    0.85860    0.07080    1.000
    C7       C        0.10580    0.04360    0.04380    1.000
    H3       H        0.17750    0.07200    0.07350    1.000
    C8       C        0.02400    0.13020    0.00190    1.000
    C9       C        0.05210    0.27020    0.00970    1.000
    H4       H        0.06470    0.29660    0.07080    1.000
    H5       H        0.12100    0.28220    0.99750    1.000
    C10      C        0.97190    0.40080    0.87030    1.000
    C11      C        0.04940    0.38780    0.82670    1.000
    H6       H        0.11240    0.33750    0.84970    1.000
    C12      C        0.02800    0.45310    0.74800    1.000
    H7       H        0.07830    0.44770    0.71720    1.000
    C13      C        0.93270    0.52760    0.71260    1.000
    H8       H        0.92080    0.56990    0.65870    1.000
    C14      C        0.85620    0.53950    0.75620    1.000
    H9       H        0.79320    0.58960    0.73270    1.000
    C15      C        0.87550    0.47500    0.83550    1.000
    C16      C        0.87360    0.39570    0.96160    1.000
    C17      C        0.83190    0.36920    0.03510    1.000
    C18      C        0.87130    0.28750    0.10530    1.000
    H10      H        0.93540    0.23880    0.11710    1.000
    C19      C        0.70470    0.39650    0.09780    1.000
    H11      H        0.64110    0.42890    0.10620    1.000
    O1       O        0.57870    0.55550    0.74020    1.000
    O2       O        0.58730    0.34700    0.71930    1.000
    O3       O        0.44950    0.16300    0.53520    1.000
    O4       O        0.35190    0.26880    0.60010    1.000
    S1       S        0.78680    0.28740    0.16827    1.000
    Cd2      Cd       0.36120    0.03251    0.61246    1.000
    N4       N        0.26370    0.93210    0.46870    1.000
    N5       N        0.18500    0.96970    0.60640    1.000
    N6       N        0.03140    0.85280    0.54910    1.000
    C20      C        0.43300    0.95820    0.80790    1.000
    C21      C        0.47140    0.97770    0.90770    1.000
    C22      C        0.43790    0.08800    0.94090    1.000
    H12      H        0.39670    0.14800    0.90040    1.000
    C23      C        0.53690    0.88770    0.96870    1.000
    C24      C        0.58050    0.76680    0.94040    1.000
    C25      C        0.91770    0.41560    0.45790    1.000
    H13      H        0.86150    0.35860    0.42920    1.000
    C26      C        0.89420    0.54360    0.45620    1.000
    H14      H        0.82250    0.57200    0.42650    1.000
    C27      C        0.97600    0.63020    0.49810    1.000
    C28      C        0.94790    0.77020    0.49030    1.000
    H15      H        0.93530    0.79660    0.42920    1.000
    H16      H        0.87900    0.78220    0.50250    1.000
    C29      C        0.02810    0.90080    0.62970    1.000
    C30      C        0.95060    0.88780    0.67330    1.000
    H17      H        0.88760    0.83750    0.65030    1.000
    C31      C        0.97200    0.95310    0.75200    1.000
    H18      H        0.92170    0.94770    0.78280    1.000
    C32      C        0.06730    0.02760    0.78740    1.000
    H19      H        0.07920    0.06990    0.84130    1.000
    C33      C        0.14380    0.03950    0.74380    1.000
    H20      H        0.20680    0.08960    0.76730    1.000
    C34      C        0.12450    0.97500    0.66450    1.000
    C35      C        0.12640    0.89570    0.53840    1.000
    C36      C        0.16810    0.86920    0.46490    1.000
    C37      C        0.12870    0.78750    0.39470    1.000
    H21      H        0.06460    0.73880    0.38290    1.000
    C38      C        0.29530    0.89650    0.40220    1.000
    H22      H        0.35890    0.92890    0.39380    1.000
    O5       O        0.42130    0.05550    0.75980    1.000
    O6       O        0.41270    0.84700    0.78070    1.000
    O7       O        0.55050    0.66300    0.96480    1.000
    O8       O        0.64810    0.76880    0.89990    1.000
    S2       S        0.21320    0.78740    0.33173    1.000
    Cd3      Cd       0.36120    0.46749    0.11246    1.000
    N7       N        0.26370    0.56790    0.96870    1.000
    N8       N        0.18500    0.53030    0.10640    1.000
    N9       N        0.03140    0.64720    0.04910    1.000
    C39      C        0.43300    0.54180    0.30790    1.000
    C40      C        0.47140    0.52230    0.40770    1.000
    C41      C        0.43790    0.41200    0.44090    1.000
    H23      H        0.39670    0.35200    0.40040    1.000
    C42      C        0.53690    0.61230    0.46870    1.000
    C43      C        0.58050    0.73320    0.44040    1.000
    C44      C        0.91770    0.08440    0.95790    1.000
    H24      H        0.86150    0.14140    0.92920    1.000
    C45      C        0.89420    0.95640    0.95620    1.000
    H25      H        0.82250    0.92800    0.92650    1.000
    C46      C        0.97600    0.86980    0.99810    1.000
    C47      C        0.94790    0.72980    0.99030    1.000
    H26      H        0.93530    0.70340    0.92920    1.000
    H27      H        0.87900    0.71780    0.00250    1.000
    C48      C        0.02810    0.59920    0.12970    1.000
    C49      C        0.95060    0.61220    0.17330    1.000
    H28      H        0.88760    0.66250    0.15030    1.000
    C50      C        0.97200    0.54690    0.25200    1.000
    H29      H        0.92170    0.55230    0.28280    1.000
    C51      C        0.06730    0.47240    0.28740    1.000
    H30      H        0.07920    0.43010    0.34130    1.000
    C52      C        0.14380    0.46050    0.24380    1.000
    H31      H        0.20680    0.41040    0.26730    1.000
    C53      C        0.12450    0.52500    0.16450    1.000
    C54      C        0.12640    0.60430    0.03840    1.000
    C55      C        0.16810    0.63080    0.96490    1.000
    C56      C        0.12870    0.71250    0.89470    1.000
    H32      H        0.06460    0.76120    0.88290    1.000
    C57      C        0.29530    0.60350    0.90220    1.000
    H33      H        0.35890    0.57110    0.89380    1.000
    O9       O        0.42130    0.44450    0.25980    1.000
    O10      O        0.41270    0.65300    0.28070    1.000
    O11      O        0.55050    0.83700    0.46480    1.000
    O12      O        0.64810    0.73120    0.39990    1.000
    S3       S        0.21320    0.71260    0.83173    1.000
    Cd4      Cd       0.63880    0.96749    0.38754    1.000
    N10      N        0.73630    0.06790    0.53130    1.000
    N11      N        0.81500    0.03030    0.39360    1.000
    N12      N        0.96860    0.14720    0.45090    1.000
    C58      C        0.56700    0.04180    0.19210    1.000
    C59      C        0.52860    0.02230    0.09230    1.000
    C60      C        0.56210    0.91200    0.05910    1.000
    H34      H        0.60330    0.85200    0.09960    1.000
    C61      C        0.46310    0.11230    0.03130    1.000
    C62      C        0.41950    0.23320    0.05960    1.000
    C63      C        0.08230    0.58440    0.54210    1.000
    H35      H        0.13850    0.64140    0.57080    1.000
    C64      C        0.10580    0.45640    0.54380    1.000
    H36      H        0.17750    0.42800    0.57350    1.000
    C65      C        0.02400    0.36980    0.50190    1.000
    C66      C        0.05210    0.22980    0.50970    1.000
    H37      H        0.06470    0.20340    0.57080    1.000
    H38      H        0.12100    0.21780    0.49750    1.000
    C67      C        0.97190    0.09920    0.37030    1.000
    C68      C        0.04940    0.11220    0.32670    1.000
    H39      H        0.11240    0.16250    0.34970    1.000
    C69      C        0.02800    0.04690    0.24800    1.000
    H40      H        0.07830    0.05230    0.21720    1.000
    C70      C        0.93270    0.97240    0.21260    1.000
    H41      H        0.92080    0.93010    0.15870    1.000
    C71      C        0.85620    0.96050    0.25620    1.000
    H42      H        0.79320    0.91040    0.23270    1.000
    C72      C        0.87550    0.02500    0.33550    1.000
    C73      C        0.87360    0.10430    0.46160    1.000
    C74      C        0.83190    0.13080    0.53510    1.000
    C75      C        0.87130    0.21250    0.60530    1.000
    H43      H        0.93540    0.26120    0.61710    1.000
    C76      C        0.70470    0.10350    0.59780    1.000
    H44      H        0.64110    0.07110    0.60620    1.000
    O13      O        0.57870    0.94450    0.24020    1.000
    O14      O        0.58730    0.15300    0.21930    1.000
    O15      O        0.44950    0.33700    0.03520    1.000
    O16      O        0.35190    0.23120    0.10010    1.000
    S4       S        0.78680    0.21260    0.66827    1.000
