# CIF file generated by openbabel 3.1.0, see https://openbabel.org
data_I
_chemical_name_common 'image0'
_cell_length_a 14.4444
_cell_length_b 14.7116
_cell_length_c 30.772
_cell_angle_alpha 90
_cell_angle_beta 96.966
_cell_angle_gamma 90
_space_group_name_H-M_alt 'P 1'
_space_group_name_Hall 'P 1'
loop_
    _symmetry_equiv_pos_as_xyz
    x,y,z
loop_
    _atom_site_label
    _atom_site_type_symbol
    _atom_site_fract_x
    _atom_site_fract_y
    _atom_site_fract_z
    _atom_site_occupancy
    C1       C        0.13430    0.32940    0.54920    1.000
    C2       C        0.45970    0.31690    0.55200    1.000
    C3       C        0.45890    0.64160    0.55670    1.000
    C4       C        0.95040    0.13290    0.55620    1.000
    C5       C        0.27310    0.40120    0.45540    1.000
    H1       H        0.24870    0.35150    0.47010    1.000
    C6       C        0.34500    0.53800    0.45720    1.000
    H2       H        0.37130    0.58860    0.47340    1.000
    C7       C        0.27180    0.39680    0.41070    1.000
    H3       H        0.24450    0.34560    0.39520    1.000
    C8       C        0.34860    0.53790    0.41290    1.000
    H4       H        0.37750    0.58650    0.39930    1.000
    C9       C        0.30910    0.46510    0.38820    1.000
    C10      C        0.30380    0.46640    0.34010    1.000
    C11      C        0.22900    0.42950    0.31320    1.000
    H5       H        0.18030    0.39870    0.32530    1.000
    C12      C        0.22710    0.43840    0.26940    1.000
    H6       H        0.17630    0.41540    0.25000    1.000
    C13      C        0.30050    0.48160    0.25340    1.000
    C14      C        0.30330    0.49480    0.20570    1.000
    C15      C        0.22060    0.50010    0.17730    1.000
    H7       H        0.16220    0.49730    0.18850    1.000
    C16      C        0.38610    0.50240    0.18740    1.000
    H8       H        0.44410    0.50140    0.20560    1.000
    C17      C        0.22390    0.50940    0.13320    1.000
    H9       H        0.16670    0.51300    0.11440    1.000
    C18      C        0.38370    0.51140    0.14270    1.000
    H10      H        0.44110    0.51630    0.13070    1.000
    N1       N        0.19300    0.38200    0.54720    1.000
    N2       N        0.40370    0.37220    0.55620    1.000
    N3       N        0.40850    0.58190    0.55650    1.000
    N4       N        0.89900    0.07370    0.55440    1.000
    N5       N        0.30780    0.47320    0.47910    1.000
    N6       N        0.37410    0.50850    0.32350    1.000
    N7       N        0.37280    0.51530    0.28000    1.000
    N8       N        0.30370    0.51350    0.11540    1.000
    Fe1      Fe       0.30264    0.48066    0.54986    1.000
    Au1      Au       0.04099    0.23334    0.55268    1.000
    Au2      Au       0.55408    0.22598    0.54351    1.000
    Au3      Au       0.54989    0.74145    0.55268    1.000
    C19      C        0.15250    0.36750    0.04010    1.000
    C20      C        0.14700    0.66160    0.04930    1.000
    C21      C        0.45100    0.66970    0.05250    1.000
    C22      C        0.64520    0.85670    0.04100    1.000
    C23      C        0.32830    0.45400    0.96130    1.000
    H11      H        0.34680    0.40000    0.97690    1.000
    C24      C        0.27860    0.60000    0.96100    1.000
    H12      H        0.26300    0.65280    0.97640    1.000
    C25      C        0.33060    0.45420    0.91710    1.000
    H13      H        0.35100    0.40190    0.90290    1.000
    C26      C        0.27590    0.60540    0.91570    1.000
    H14      H        0.25580    0.65950    0.90060    1.000
    C27      C        0.30300    0.53090    0.89310    1.000
    C28      C        0.29990    0.53200    0.84470    1.000
    C29      C        0.22690    0.57480    0.81810    1.000
    H15      H        0.18010    0.60830    0.83030    1.000
    C30      C        0.22590    0.56620    0.77410    1.000
    H16      H        0.17780    0.59340    0.75460    1.000
    C31      C        0.29630    0.51690    0.75810    1.000
    C32      C        0.30050    0.50460    0.71030    1.000
    C33      C        0.38330    0.49940    0.69260    1.000
    H17      H        0.44110    0.50240    0.71100    1.000
    C34      C        0.38160    0.49000    0.64820    1.000
    H18      H        0.43940    0.48650    0.63650    1.000
    C35      C        0.22270    0.48960    0.63780    1.000
    H19      H        0.16580    0.48550    0.61880    1.000
    C36      C        0.21820    0.49920    0.68180    1.000
    H20      H        0.15950    0.50210    0.69280    1.000
    N9       N        0.20800    0.42320    0.04260    1.000
    N10      N        0.20370    0.61030    0.04755    1.000
    N11      N        0.39600    0.61560    0.05450    1.000
    N12      N        0.70120    0.91290    0.04090    1.000
    N13      N        0.30180    0.52460    0.98416    1.000
    N14      N        0.36740    0.48660    0.82850    1.000
    N15      N        0.36700    0.48030    0.78470    1.000
    N16      N        0.30250    0.48560    0.62030    1.000
    Fe2      Fe       0.30226    0.51916    0.04978    1.000
    Au4      Au       0.54722    0.76414    0.04479    1.000
    C37      C        0.65250    0.13250    0.54010    1.000
    C38      C        0.64700    0.83840    0.54930    1.000
    C39      C        0.95100    0.83030    0.55250    1.000
    C40      C        0.14520    0.64330    0.54100    1.000
    C41      C        0.82830    0.04600    0.46130    1.000
    H21      H        0.84680    0.10000    0.47690    1.000
    C42      C        0.77860    0.90000    0.46100    1.000
    H22      H        0.76300    0.84720    0.47640    1.000
    C43      C        0.83060    0.04580    0.41710    1.000
    H23      H        0.85100    0.09810    0.40290    1.000
    C44      C        0.77590    0.89460    0.41570    1.000
    H24      H        0.75580    0.84050    0.40060    1.000
    C45      C        0.80300    0.96910    0.39310    1.000
    C46      C        0.79990    0.96800    0.34470    1.000
    C47      C        0.72690    0.92520    0.31810    1.000
    H25      H        0.68010    0.89170    0.33030    1.000
    C48      C        0.72590    0.93380    0.27410    1.000
    H26      H        0.67780    0.90660    0.25460    1.000
    C49      C        0.79630    0.98310    0.25810    1.000
    C50      C        0.80050    0.99540    0.21030    1.000
    C51      C        0.88330    0.00060    0.19260    1.000
    H27      H        0.94110    0.99760    0.21100    1.000
    C52      C        0.88160    0.01000    0.14820    1.000
    H28      H        0.93940    0.01350    0.13650    1.000
    C53      C        0.72270    0.01040    0.13780    1.000
    H29      H        0.66580    0.01450    0.11880    1.000
    C54      C        0.71820    0.00080    0.18180    1.000
    H30      H        0.65950    0.99790    0.19280    1.000
    N17      N        0.70800    0.07680    0.54260    1.000
    N18      N        0.70370    0.88970    0.54755    1.000
    N19      N        0.89600    0.88440    0.55450    1.000
    N20      N        0.20120    0.58710    0.54090    1.000
    N21      N        0.80180    0.97540    0.48416    1.000
    N22      N        0.86740    0.01340    0.32850    1.000
    N23      N        0.86700    0.01970    0.28470    1.000
    N24      N        0.80250    0.01440    0.12030    1.000
    Fe3      Fe       0.80226    0.98084    0.54978    1.000
    Au5      Au       0.04722    0.73586    0.54479    1.000
    C55      C        0.63430    0.17060    0.04920    1.000
    C56      C        0.95970    0.18310    0.05200    1.000
    C57      C        0.95890    0.85840    0.05670    1.000
    C58      C        0.45040    0.36710    0.05620    1.000
    C59      C        0.77310    0.09880    0.95540    1.000
    H31      H        0.74870    0.14850    0.97010    1.000
    C60      C        0.84500    0.96200    0.95720    1.000
    H32      H        0.87130    0.91140    0.97340    1.000
    C61      C        0.77180    0.10320    0.91070    1.000
    H33      H        0.74450    0.15440    0.89520    1.000
    C62      C        0.84860    0.96210    0.91290    1.000
    H34      H        0.87750    0.91350    0.89930    1.000
    C63      C        0.80910    0.03490    0.88820    1.000
    C64      C        0.80380    0.03360    0.84010    1.000
    C65      C        0.72900    0.07050    0.81320    1.000
    H35      H        0.68030    0.10130    0.82530    1.000
    C66      C        0.72710    0.06160    0.76940    1.000
    H36      H        0.67630    0.08460    0.75000    1.000
    C67      C        0.80050    0.01840    0.75340    1.000
    C68      C        0.80330    0.00520    0.70570    1.000
    C69      C        0.72060    0.99990    0.67730    1.000
    H37      H        0.66220    0.00270    0.68850    1.000
    C70      C        0.88610    0.99760    0.68740    1.000
    H38      H        0.94410    0.99860    0.70560    1.000
    C71      C        0.72390    0.99060    0.63320    1.000
    H39      H        0.66670    0.98700    0.61440    1.000
    C72      C        0.88370    0.98860    0.64270    1.000
    H40      H        0.94110    0.98370    0.63070    1.000
    N25      N        0.69300    0.11800    0.04720    1.000
    N26      N        0.90370    0.12780    0.05620    1.000
    N27      N        0.90850    0.91810    0.05650    1.000
    N28      N        0.39900    0.42630    0.05440    1.000
    N29      N        0.80780    0.02680    0.97910    1.000
    N30      N        0.87410    0.99150    0.82350    1.000
    N31      N        0.87280    0.98470    0.78000    1.000
    N32      N        0.80370    0.98650    0.61540    1.000
    Fe4      Fe       0.80264    0.01934    0.04986    1.000
    Au6      Au       0.54099    0.26666    0.05268    1.000
    Au7      Au       0.05408    0.27402    0.04351    1.000
    Au8      Au       0.04989    0.75855    0.05268    1.000
    C73      C        0.34750    0.86750    0.45990    1.000
    C74      C        0.35300    0.16160    0.45070    1.000
    C75      C        0.04900    0.16970    0.44750    1.000
    C76      C        0.85480    0.35670    0.45900    1.000
    C77      C        0.17170    0.95400    0.53870    1.000
    H41      H        0.15320    0.90000    0.52310    1.000
    C78      C        0.22140    0.10000    0.53900    1.000
    H42      H        0.23700    0.15280    0.52360    1.000
    C79      C        0.16940    0.95420    0.58290    1.000
    H43      H        0.14900    0.90190    0.59710    1.000
    C80      C        0.22410    0.10540    0.58430    1.000
    H44      H        0.24420    0.15950    0.59940    1.000
    C81      C        0.19700    0.03090    0.60690    1.000
    C82      C        0.20010    0.03200    0.65530    1.000
    C83      C        0.27310    0.07480    0.68190    1.000
    H45      H        0.31990    0.10830    0.66970    1.000
    C84      C        0.27410    0.06620    0.72590    1.000
    H46      H        0.32220    0.09340    0.74540    1.000
    C85      C        0.20370    0.01690    0.74190    1.000
    C86      C        0.19950    0.00460    0.78970    1.000
    C87      C        0.11670    0.99940    0.80740    1.000
    H47      H        0.05890    0.00240    0.78900    1.000
    C88      C        0.11840    0.99000    0.85180    1.000
    H48      H        0.06060    0.98650    0.86350    1.000
    C89      C        0.27730    0.98960    0.86220    1.000
    H49      H        0.33420    0.98550    0.88120    1.000
    C90      C        0.28180    0.99920    0.81820    1.000
    H50      H        0.34050    0.00210    0.80720    1.000
    N33      N        0.29200    0.92320    0.45740    1.000
    N34      N        0.29630    0.11030    0.45245    1.000
    N35      N        0.10400    0.11560    0.44550    1.000
    N36      N        0.79880    0.41290    0.45910    1.000
    N37      N        0.19820    0.02460    0.51584    1.000
    N38      N        0.13260    0.98660    0.67150    1.000
    N39      N        0.13300    0.98030    0.71530    1.000
    N40      N        0.19750    0.98560    0.87970    1.000
    Fe5      Fe       0.19774    0.01916    0.45022    1.000
    Au9      Au       0.95278    0.26414    0.45521    1.000
    C91      C        0.36570    0.82940    0.95080    1.000
    C92      C        0.04030    0.81690    0.94800    1.000
    C93      C        0.04110    0.14160    0.94330    1.000
    C94      C        0.54960    0.63290    0.94380    1.000
    C95      C        0.22690    0.90120    0.04460    1.000
    H51      H        0.25130    0.85150    0.02990    1.000
    C96      C        0.15500    0.03800    0.04280    1.000
    H52      H        0.12870    0.08860    0.02660    1.000
    C97      C        0.22820    0.89680    0.08930    1.000
    H53      H        0.25550    0.84560    0.10480    1.000
    C98      C        0.15140    0.03790    0.08710    1.000
    H54      H        0.12250    0.08650    0.10070    1.000
    C99      C        0.19090    0.96510    0.11180    1.000
    C100     C        0.19620    0.96640    0.15990    1.000
    C101     C        0.27100    0.92950    0.18680    1.000
    H55      H        0.31970    0.89870    0.17470    1.000
    C102     C        0.27290    0.93840    0.23060    1.000
    H56      H        0.32370    0.91540    0.25000    1.000
    C103     C        0.19950    0.98160    0.24660    1.000
    C104     C        0.19670    0.99480    0.29430    1.000
    C105     C        0.27940    0.00010    0.32270    1.000
    H57      H        0.33780    0.99730    0.31150    1.000
    C106     C        0.11390    0.00240    0.31260    1.000
    H58      H        0.05590    0.00140    0.29440    1.000
    C107     C        0.27610    0.00940    0.36680    1.000
    H59      H        0.33330    0.01300    0.38560    1.000
    C108     C        0.11630    0.01140    0.35730    1.000
    H60      H        0.05890    0.01630    0.36930    1.000
    N41      N        0.30700    0.88200    0.95280    1.000
    N42      N        0.09630    0.87220    0.94380    1.000
    N43      N        0.09150    0.08190    0.94350    1.000
    N44      N        0.60100    0.57370    0.94560    1.000
    N45      N        0.19220    0.97320    0.02090    1.000
    N46      N        0.12590    0.00850    0.17650    1.000
    N47      N        0.12720    0.01530    0.22000    1.000
    N48      N        0.19630    0.01350    0.38460    1.000
    Fe6      Fe       0.19736    0.98066    0.95014    1.000
    Au10     Au       0.45901    0.73334    0.94732    1.000
    Au11     Au       0.94592    0.72598    0.95649    1.000
    Au12     Au       0.95011    0.24145    0.94732    1.000
    C109     C        0.86570    0.67060    0.45080    1.000
    C110     C        0.54030    0.68310    0.44800    1.000
    C111     C        0.54110    0.35840    0.44330    1.000
    C112     C        0.04960    0.86710    0.44380    1.000
    C113     C        0.72690    0.59880    0.54460    1.000
    H61      H        0.75130    0.64850    0.52990    1.000
    C114     C        0.65500    0.46200    0.54280    1.000
    H62      H        0.62870    0.41140    0.52660    1.000
    C115     C        0.72820    0.60320    0.58930    1.000
    H63      H        0.75550    0.65440    0.60480    1.000
    C116     C        0.65140    0.46210    0.58710    1.000
    H64      H        0.62250    0.41350    0.60070    1.000
    C117     C        0.69090    0.53490    0.61180    1.000
    C118     C        0.69620    0.53360    0.65990    1.000
    C119     C        0.77100    0.57050    0.68680    1.000
    H65      H        0.81970    0.60130    0.67470    1.000
    C120     C        0.77290    0.56160    0.73060    1.000
    H66      H        0.82370    0.58460    0.75000    1.000
    C121     C        0.69950    0.51840    0.74660    1.000
    C122     C        0.69670    0.50520    0.79430    1.000
    C123     C        0.77940    0.49990    0.82270    1.000
    H67      H        0.83780    0.50270    0.81150    1.000
    C124     C        0.61390    0.49760    0.81260    1.000
    H68      H        0.55590    0.49860    0.79440    1.000
    C125     C        0.77610    0.49060    0.86680    1.000
    H69      H        0.83330    0.48700    0.88560    1.000
    C126     C        0.61630    0.48860    0.85730    1.000
    H70      H        0.55890    0.48370    0.86930    1.000
    N49      N        0.80700    0.61800    0.45280    1.000
    N50      N        0.59630    0.62780    0.44380    1.000
    N51      N        0.59150    0.41810    0.44350    1.000
    N52      N        0.10100    0.92630    0.44560    1.000
    N53      N        0.69220    0.52680    0.52090    1.000
    N54      N        0.62590    0.49150    0.67650    1.000
    N55      N        0.62720    0.48470    0.72000    1.000
    N56      N        0.69630    0.48650    0.88460    1.000
    Fe7      Fe       0.69736    0.51934    0.45014    1.000
    Au13     Au       0.95901    0.76666    0.44732    1.000
    Au14     Au       0.44592    0.77402    0.45649    1.000
    Au15     Au       0.45011    0.25855    0.44732    1.000
    C127     C        0.84750    0.63250    0.95990    1.000
    C128     C        0.85300    0.33840    0.95070    1.000
    C129     C        0.54900    0.33030    0.94750    1.000
    C130     C        0.35480    0.14330    0.95900    1.000
    C131     C        0.67170    0.54600    0.03870    1.000
    H71      H        0.65320    0.60000    0.02310    1.000
    C132     C        0.72140    0.40000    0.03900    1.000
    H72      H        0.73700    0.34720    0.02360    1.000
    C133     C        0.66940    0.54580    0.08290    1.000
    H73      H        0.64900    0.59810    0.09710    1.000
    C134     C        0.72410    0.39460    0.08430    1.000
    H74      H        0.74420    0.34050    0.09940    1.000
    C135     C        0.69700    0.46910    0.10690    1.000
    C136     C        0.70010    0.46800    0.15530    1.000
    C137     C        0.77310    0.42520    0.18190    1.000
    H75      H        0.81990    0.39170    0.16970    1.000
    C138     C        0.77410    0.43380    0.22590    1.000
    H76      H        0.82220    0.40660    0.24540    1.000
    C139     C        0.70370    0.48310    0.24190    1.000
    C140     C        0.69950    0.49540    0.28970    1.000
    C141     C        0.61670    0.50060    0.30740    1.000
    H77      H        0.55890    0.49760    0.28900    1.000
    C142     C        0.61840    0.51000    0.35180    1.000
    H78      H        0.56060    0.51350    0.36350    1.000
    C143     C        0.77730    0.51040    0.36220    1.000
    H79      H        0.83420    0.51450    0.38120    1.000
    C144     C        0.78180    0.50080    0.31820    1.000
    H80      H        0.84050    0.49790    0.30720    1.000
    N57      N        0.79200    0.57680    0.95740    1.000
    N58      N        0.79630    0.38970    0.95245    1.000
    N59      N        0.60400    0.38440    0.94550    1.000
    N60      N        0.29880    0.08710    0.95910    1.000
    N61      N        0.69820    0.47540    0.01584    1.000
    N62      N        0.63260    0.51340    0.17150    1.000
    N63      N        0.63300    0.51970    0.21530    1.000
    N64      N        0.69750    0.51440    0.37970    1.000
    Fe8      Fe       0.69774    0.48084    0.95022    1.000
    Au16     Au       0.45278    0.23586    0.95521    1.000
