# CIF file generated by openbabel 3.1.0, see https://openbabel.org
data_I
_chemical_name_common 'WEMFOL_clean'
_cell_length_a 9.6205
_cell_length_b 11.564
_cell_length_c 12.229
_cell_angle_alpha 90
_cell_angle_beta 99.04
_cell_angle_gamma 90
_space_group_name_H-M_alt 'P 1'
_space_group_name_Hall 'P 1'
loop_
    _symmetry_equiv_pos_as_xyz
    x,y,z
loop_
    _atom_site_label
    _atom_site_type_symbol
    _atom_site_fract_x
    _atom_site_fract_y
    _atom_site_fract_z
    _atom_site_occupancy
    Ho1      Ho       0.78498    0.51238    0.16715    1.000
    Ho2      Ho       0.71502    0.01238    0.33285    1.000
    Ho3      Ho       0.21502    0.48762    0.83285    1.000
    Ho4      Ho       0.28498    0.98762    0.66715    1.000
    C1       C        0.70100    0.74290    0.28300    1.000
    C2       C        0.50420    0.43380    0.99860    1.000
    C3       C        0.80330    0.78600    0.20770    1.000
    C4       C        0.06270    0.49990    0.04770    1.000
    C5       C        0.79900    0.24290    0.21700    1.000
    C6       C        0.99580    0.93380    0.50140    1.000
    C7       C        0.69670    0.28600    0.29230    1.000
    C8       C        0.43730    0.99990    0.45230    1.000
    C9       C        0.29900    0.25710    0.71700    1.000
    C10      C        0.49580    0.56620    0.00140    1.000
    C11      C        0.19670    0.21400    0.79230    1.000
    C12      C        0.93730    0.50010    0.95230    1.000
    C13      C        0.20100    0.75710    0.78300    1.000
    C14      C        0.00420    0.06620    0.49860    1.000
    C15      C        0.30330    0.71400    0.70770    1.000
    C16      C        0.56270    0.00010    0.54770    1.000
    O1       O        0.68870    0.63540    0.29250    1.000
    O2       O        0.63560    0.81790    0.32930    1.000
    O3       O        0.60300    0.38780    0.06270    1.000
    O4       O        0.41220    0.38210    0.93290    1.000
    O5       O        0.82130    0.89340    0.20450    1.000
    O6       O        0.86180    0.71080    0.15630    1.000
    O7       O        0.18210    0.48870    0.02210    1.000
    O8       O        0.03260    0.50930    0.14350    1.000
    O9       O        0.81130    0.13540    0.20750    1.000
    O10      O        0.86440    0.31790    0.17070    1.000
    O11      O        0.89700    0.88780    0.43730    1.000
    O12      O        0.08780    0.88210    0.56710    1.000
    O13      O        0.67870    0.39340    0.29550    1.000
    O14      O        0.63820    0.21080    0.34370    1.000
    O15      O        0.31790    0.98870    0.47790    1.000
    O16      O        0.46740    0.00930    0.35650    1.000
    O17      O        0.31130    0.36460    0.70750    1.000
    O18      O        0.36440    0.18210    0.67070    1.000
    O19      O        0.39700    0.61220    0.93730    1.000
    O20      O        0.58780    0.61790    0.06710    1.000
    O21      O        0.17870    0.10660    0.79550    1.000
    O22      O        0.13820    0.28920    0.84370    1.000
    O23      O        0.81790    0.51130    0.97790    1.000
    O24      O        0.96740    0.49070    0.85650    1.000
    O25      O        0.18870    0.86460    0.79250    1.000
    O26      O        0.13560    0.68210    0.82930    1.000
    O27      O        0.10300    0.11220    0.56270    1.000
    O28      O        0.91220    0.11790    0.43290    1.000
    O29      O        0.32130    0.60660    0.70450    1.000
    O30      O        0.36180    0.78920    0.65630    1.000
    O31      O        0.68210    0.01130    0.52210    1.000
    O32      O        0.53260    0.99070    0.64350    1.000
