# CIF file generated by openbabel 3.1.0, see https://openbabel.org
data_I
_chemical_name_common 'image0'
_cell_length_a 7.7297
_cell_length_b 10.2725
_cell_length_c 16.0234
_cell_angle_alpha 86.817
_cell_angle_beta 85.974
_cell_angle_gamma 77.107
_space_group_name_H-M_alt 'P 1'
_space_group_name_Hall 'P 1'
loop_
    _symmetry_equiv_pos_as_xyz
    x,y,z
loop_
    _atom_site_label
    _atom_site_type_symbol
    _atom_site_fract_x
    _atom_site_fract_y
    _atom_site_fract_z
    _atom_site_occupancy
    Eu1      Eu       0.35439    0.33627    0.06325    1.000
    Eu2      Eu       0.61510    0.86838    0.32466    1.000
    O1       O        0.20640    0.29730    0.77740    1.000
    O2       O        0.09970    0.07270    0.70480    1.000
    O3       O        0.49050    0.35600    0.65190    1.000
    O4       O        0.64010    0.18810    0.72880    1.000
    O5       O        0.75950    0.44350    0.88200    1.000
    O6       O        0.59190    0.33810    0.96770    1.000
    O7       O        0.78590    0.51570    0.04850    1.000
    O8       O        0.03790    0.36850    0.07620    1.000
    O9       O        0.33780    0.97050    0.57590    1.000
    O10      O        0.40680    0.88950    0.44730    1.000
    O11      O        0.39730    0.08830    0.29950    1.000
    O12      O        0.61790    0.95550    0.18130    1.000
    O13      O        0.29080    0.24750    0.20300    1.000
    O14      O        0.50020    0.10670    0.08320    1.000
    C1       C        0.06060    0.48790    0.70510    1.000
    H1       H        0.16320    0.52450    0.70470    1.000
    C2       C        0.91240    0.55730    0.66540    1.000
    H2       H        0.91050    0.64400    0.64090    1.000
    C3       C        0.76670    0.50060    0.66150    1.000
    H3       H        0.66780    0.54540    0.63120    1.000
    C4       C        0.76640    0.37790    0.70220    1.000
    C5       C        0.91170    0.31500    0.74670    1.000
    C6       C        0.61960    0.30510    0.69380    1.000
    C7       C        0.01820    0.96640    0.82850    1.000
    H4       H        0.08850    0.88380    0.81000    1.000
    C8       C        0.92120    0.96950    0.90420    1.000
    H5       H        0.92330    0.88970    0.93730    1.000
    C9       C        0.82100    0.08970    0.93110    1.000
    H6       H        0.75310    0.09270    0.98300    1.000
    C10      C        0.81880    0.20630    0.88300    1.000
    C11      C        0.91770    0.19850    0.80650    1.000
    C12      C        0.71490    0.33880    0.91220    1.000
    C13      C        0.94900    0.46700    0.03580    1.000
    C14      C        0.42540    0.95830    0.50800    1.000
    C15      C        0.51260    0.06130    0.15790    1.000
    C16      C        0.38950    0.13860    0.22540    1.000
    N1       N        0.05990    0.36890    0.74400    1.000
    N2       N        0.01490    0.07880    0.78050    1.000
    Eu3      Eu       0.64561    0.66373    0.93675    1.000
    Eu4      Eu       0.38490    0.13162    0.67534    1.000
    O15      O        0.79360    0.70270    0.22260    1.000
    O16      O        0.90030    0.92730    0.29520    1.000
    O17      O        0.50950    0.64400    0.34810    1.000
    O18      O        0.35990    0.81190    0.27120    1.000
    O19      O        0.24050    0.55650    0.11800    1.000
    O20      O        0.40810    0.66190    0.03230    1.000
    O21      O        0.21410    0.48430    0.95150    1.000
    O22      O        0.96210    0.63150    0.92380    1.000
    O23      O        0.66220    0.02950    0.42410    1.000
    O24      O        0.59320    0.11050    0.55270    1.000
    O25      O        0.60270    0.91170    0.70050    1.000
    O26      O        0.38210    0.04450    0.81870    1.000
    O27      O        0.70920    0.75250    0.79700    1.000
    O28      O        0.49980    0.89330    0.91680    1.000
    C17      C        0.93940    0.51210    0.29490    1.000
    H7       H        0.83680    0.47550    0.29530    1.000
    C18      C        0.08760    0.44270    0.33460    1.000
    H8       H        0.08950    0.35600    0.35910    1.000
    C19      C        0.23330    0.49940    0.33850    1.000
    H9       H        0.33220    0.45460    0.36880    1.000
    C20      C        0.23360    0.62210    0.29780    1.000
    C21      C        0.08830    0.68500    0.25330    1.000
    C22      C        0.38040    0.69490    0.30620    1.000
    C23      C        0.98180    0.03360    0.17150    1.000
    H10      H        0.91150    0.11620    0.19000    1.000
    C24      C        0.07880    0.03050    0.09580    1.000
    H11      H        0.07670    0.11030    0.06270    1.000
    C25      C        0.17900    0.91030    0.06890    1.000
    H12      H        0.24690    0.90730    0.01700    1.000
    C26      C        0.18120    0.79370    0.11700    1.000
    C27      C        0.08230    0.80150    0.19350    1.000
    C28      C        0.28510    0.66120    0.08780    1.000
    C29      C        0.05100    0.53300    0.96420    1.000
    C30      C        0.57460    0.04170    0.49200    1.000
    C31      C        0.48740    0.93870    0.84210    1.000
    C32      C        0.61050    0.86140    0.77460    1.000
    N3       N        0.94010    0.63110    0.25600    1.000
    N4       N        0.98510    0.92120    0.21950    1.000
