# CIF file generated by openbabel 3.1.0, see https://openbabel.org
data_I
_chemical_name_common 'image0'
_cell_length_a 7.412
_cell_length_b 16.4666
_cell_length_c 14.5028
_cell_angle_alpha 90
_cell_angle_beta 95.352
_cell_angle_gamma 90
_space_group_name_H-M_alt 'P 1'
_space_group_name_Hall 'P 1'
loop_
    _symmetry_equiv_pos_as_xyz
    x,y,z
loop_
    _atom_site_label
    _atom_site_type_symbol
    _atom_site_fract_x
    _atom_site_fract_y
    _atom_site_fract_z
    _atom_site_occupancy
    Co1      Co       0.70914    0.01325    0.67671    1.000
    Co2      Co       0.68901    0.12792    0.47337    1.000
    O1       O        0.74110    0.01656    0.54000    1.000
    O2       O        0.51400    0.10296    0.68147    1.000
    O3       O        0.46300    0.15546    0.53953    1.000
    O4       O        0.01930    0.41761    0.86439    1.000
    O5       O        0.10210    0.09416    0.58245    1.000
    O6       O        0.93140    0.45194    0.72250    1.000
    O7       O        0.40060    0.41528    0.89689    1.000
    O8       O        0.87310    0.18302    0.56473    1.000
    O9       O        0.59230    0.42304    0.78864    1.000
    C1       C        0.44260    0.15208    0.62470    1.000
    C2       C        0.33730    0.34009    0.75787    1.000
    C3       C        0.14410    0.22485    0.64697    1.000
    C4       C        0.45250    0.39785    0.81845    1.000
    C5       C        0.33140    0.21897    0.66296    1.000
    C6       C        0.05660    0.28984    0.68348    1.000
    H1       H        0.93230    0.29560    0.66920    1.000
    C7       C        0.03160    0.16223    0.59279    1.000
    C8       C        0.42600    0.27748    0.71695    1.000
    H2       H        0.55170    0.27460    0.72580    1.000
    C9       C        0.14760    0.34654    0.74038    1.000
    C10      C        0.03010    0.41013    0.77859    1.000
    Co3      Co       0.79086    0.51325    0.82329    1.000
    Co4      Co       0.81099    0.62792    0.02663    1.000
    O10      O        0.75890    0.51656    0.96000    1.000
    O11      O        0.98600    0.60296    0.81853    1.000
    O12      O        0.03700    0.65546    0.96047    1.000
    O13      O        0.48070    0.91761    0.63561    1.000
    O14      O        0.39790    0.59416    0.91755    1.000
    O15      O        0.56860    0.95194    0.77750    1.000
    O16      O        0.09940    0.91528    0.60311    1.000
    O17      O        0.62690    0.68302    0.93527    1.000
    O18      O        0.90770    0.92304    0.71136    1.000
    C11      C        0.05740    0.65208    0.87530    1.000
    C12      C        0.16270    0.84009    0.74213    1.000
    C13      C        0.35590    0.72485    0.85303    1.000
    C14      C        0.04750    0.89785    0.68155    1.000
    C15      C        0.16860    0.71897    0.83704    1.000
    C16      C        0.44340    0.78984    0.81652    1.000
    H3       H        0.56770    0.79560    0.83080    1.000
    C17      C        0.46840    0.66223    0.90721    1.000
    C18      C        0.07400    0.77748    0.78305    1.000
    H4       H        0.94830    0.77460    0.77420    1.000
    C19      C        0.35240    0.84654    0.75962    1.000
    C20      C        0.46990    0.91013    0.72141    1.000
    Co5      Co       0.29086    0.98675    0.32329    1.000
    Co6      Co       0.31099    0.87208    0.52663    1.000
    O19      O        0.25890    0.98344    0.46000    1.000
    O20      O        0.48600    0.89704    0.31853    1.000
    O21      O        0.53700    0.84454    0.46047    1.000
    O22      O        0.98070    0.58239    0.13561    1.000
    O23      O        0.89790    0.90584    0.41755    1.000
    O24      O        0.06860    0.54806    0.27750    1.000
    O25      O        0.59940    0.58472    0.10311    1.000
    O26      O        0.12690    0.81698    0.43527    1.000
    O27      O        0.40770    0.57696    0.21136    1.000
    C21      C        0.55740    0.84792    0.37530    1.000
    C22      C        0.66270    0.65991    0.24213    1.000
    C23      C        0.85590    0.77515    0.35303    1.000
    C24      C        0.54750    0.60215    0.18155    1.000
    C25      C        0.66860    0.78103    0.33704    1.000
    C26      C        0.94340    0.71016    0.31652    1.000
    H5       H        0.06770    0.70440    0.33080    1.000
    C27      C        0.96840    0.83777    0.40721    1.000
    C28      C        0.57400    0.72252    0.28305    1.000
    H6       H        0.44830    0.72540    0.27420    1.000
    C29      C        0.85240    0.65346    0.25962    1.000
    C30      C        0.96990    0.58987    0.22141    1.000
    Co7      Co       0.20914    0.48675    0.17671    1.000
    Co8      Co       0.18901    0.37208    0.97337    1.000
    O28      O        0.24110    0.48344    0.04000    1.000
    O29      O        0.01400    0.39704    0.18147    1.000
    O30      O        0.96300    0.34454    0.03953    1.000
    O31      O        0.51930    0.08239    0.36439    1.000
    O32      O        0.60210    0.40584    0.08245    1.000
    O33      O        0.43140    0.04806    0.22250    1.000
    O34      O        0.90060    0.08472    0.39689    1.000
    O35      O        0.37310    0.31698    0.06473    1.000
    O36      O        0.09230    0.07696    0.28864    1.000
    C31      C        0.94260    0.34792    0.12470    1.000
    C32      C        0.83730    0.15991    0.25787    1.000
    C33      C        0.64410    0.27515    0.14697    1.000
    C34      C        0.95250    0.10215    0.31845    1.000
    C35      C        0.83140    0.28103    0.16296    1.000
    C36      C        0.55660    0.21016    0.18348    1.000
    H7       H        0.43230    0.20440    0.16920    1.000
    C37      C        0.53160    0.33777    0.09279    1.000
    C38      C        0.92600    0.22252    0.21695    1.000
    H8       H        0.05170    0.22540    0.22580    1.000
    C39      C        0.64760    0.15346    0.24038    1.000
    C40      C        0.53010    0.08987    0.27859    1.000
    Co9      Co       0.00000    0.00000    0.50000    1.000
    Co10     Co       0.50000    0.50000    0.00000    1.000
