# CIF file generated by openbabel 3.1.0, see https://openbabel.org
data_I
_chemical_name_common 'image0'
_cell_length_a 11.684
_cell_length_b 13.62
_cell_length_c 11.748
_cell_angle_alpha 90
_cell_angle_beta 91.427
_cell_angle_gamma 90
_space_group_name_H-M_alt 'P 1'
_space_group_name_Hall 'P 1'
loop_
    _symmetry_equiv_pos_as_xyz
    x,y,z
loop_
    _atom_site_label
    _atom_site_type_symbol
    _atom_site_fract_x
    _atom_site_fract_y
    _atom_site_fract_z
    _atom_site_occupancy
    Be1      Be       0.35210    0.24470    0.64510    1.000
    Be2      Be       0.28640    0.60590    0.54010    1.000
    P1       P        0.30155    0.39836    0.47101    1.000
    P2       P        0.39915    0.24671    0.89904    1.000
    O1       O        0.35330    0.26750    0.77970    1.000
    O2       O        0.29930    0.34140    0.58090    1.000
    O3       O        0.23720    0.34840    0.37210    1.000
    O4       O        0.52410    0.21490    0.90220    1.000
    O5       O        0.25230    0.50100    0.48490    1.000
    O6       O        0.38830    0.34210    0.96980    1.000
    O7       O        0.33070    0.16510    0.95670    1.000
    O8       O        0.42740    0.41110    0.43020    1.000
    H1       H        0.47600    0.38800    0.46400    1.000
    Be3      Be       0.85210    0.74470    0.64510    1.000
    Be4      Be       0.78640    0.10590    0.54010    1.000
    P3       P        0.80155    0.89836    0.47101    1.000
    P4       P        0.89915    0.74671    0.89904    1.000
    O9       O        0.85330    0.76750    0.77970    1.000
    O10      O        0.79930    0.84140    0.58090    1.000
    O11      O        0.73720    0.84840    0.37210    1.000
    O12      O        0.02410    0.71490    0.90220    1.000
    O13      O        0.75230    0.00100    0.48490    1.000
    O14      O        0.88830    0.84210    0.96980    1.000
    O15      O        0.83070    0.66510    0.95670    1.000
    O16      O        0.92740    0.91110    0.43020    1.000
    H2       H        0.97600    0.88800    0.46400    1.000
    Be5      Be       0.64790    0.24470    0.85490    1.000
    Be6      Be       0.71360    0.60590    0.95990    1.000
    P5       P        0.69845    0.39836    0.02899    1.000
    P6       P        0.60085    0.24671    0.60096    1.000
    O17      O        0.64670    0.26750    0.72030    1.000
    O18      O        0.70070    0.34140    0.91910    1.000
    O19      O        0.76280    0.34840    0.12790    1.000
    O20      O        0.47590    0.21490    0.59780    1.000
    O21      O        0.74770    0.50100    0.01510    1.000
    O22      O        0.61170    0.34210    0.53020    1.000
    O23      O        0.66930    0.16510    0.54330    1.000
    O24      O        0.57260    0.41110    0.06980    1.000
    H3       H        0.52400    0.38800    0.03600    1.000
    Be7      Be       0.14790    0.74470    0.85490    1.000
    Be8      Be       0.21360    0.10590    0.95990    1.000
    P7       P        0.19845    0.89836    0.02899    1.000
    P8       P        0.10085    0.74671    0.60096    1.000
    O25      O        0.14670    0.76750    0.72030    1.000
    O26      O        0.20070    0.84140    0.91910    1.000
    O27      O        0.26280    0.84840    0.12790    1.000
    O28      O        0.97590    0.71490    0.59780    1.000
    O29      O        0.24770    0.00100    0.01510    1.000
    O30      O        0.11170    0.84210    0.53020    1.000
    O31      O        0.16930    0.66510    0.54330    1.000
    O32      O        0.07260    0.91110    0.06980    1.000
    H4       H        0.02400    0.88800    0.03600    1.000
    Be9      Be       0.64790    0.75530    0.35490    1.000
    Be10     Be       0.71360    0.39410    0.45990    1.000
    P9       P        0.69845    0.60164    0.52899    1.000
    P10      P        0.60085    0.75329    0.10096    1.000
    O33      O        0.64670    0.73250    0.22030    1.000
    O34      O        0.70070    0.65860    0.41910    1.000
    O35      O        0.76280    0.65160    0.62790    1.000
    O36      O        0.47590    0.78510    0.09780    1.000
    O37      O        0.74770    0.49900    0.51510    1.000
    O38      O        0.61170    0.65790    0.03020    1.000
    O39      O        0.66930    0.83490    0.04330    1.000
    O40      O        0.57260    0.58890    0.56980    1.000
    H5       H        0.52400    0.61200    0.53600    1.000
    Be11     Be       0.14790    0.25530    0.35490    1.000
    Be12     Be       0.21360    0.89410    0.45990    1.000
    P11      P        0.19845    0.10164    0.52899    1.000
    P12      P        0.10085    0.25329    0.10096    1.000
    O41      O        0.14670    0.23250    0.22030    1.000
    O42      O        0.20070    0.15860    0.41910    1.000
    O43      O        0.26280    0.15160    0.62790    1.000
    O44      O        0.97590    0.28510    0.09780    1.000
    O45      O        0.24770    0.99900    0.51510    1.000
    O46      O        0.11170    0.15790    0.03020    1.000
    O47      O        0.16930    0.33490    0.04330    1.000
    O48      O        0.07260    0.08890    0.56980    1.000
    H6       H        0.02400    0.11200    0.53600    1.000
    Be13     Be       0.35210    0.75530    0.14510    1.000
    Be14     Be       0.28640    0.39410    0.04010    1.000
    P13      P        0.30155    0.60164    0.97101    1.000
    P14      P        0.39915    0.75329    0.39904    1.000
    O49      O        0.35330    0.73250    0.27970    1.000
    O50      O        0.29930    0.65860    0.08090    1.000
    O51      O        0.23720    0.65160    0.87210    1.000
    O52      O        0.52410    0.78510    0.40220    1.000
    O53      O        0.25230    0.49900    0.98490    1.000
    O54      O        0.38830    0.65790    0.46980    1.000
    O55      O        0.33070    0.83490    0.45670    1.000
    O56      O        0.42740    0.58890    0.93020    1.000
    H7       H        0.47600    0.61200    0.96400    1.000
    Be15     Be       0.85210    0.25530    0.14510    1.000
    Be16     Be       0.78640    0.89410    0.04010    1.000
    P15      P        0.80155    0.10164    0.97101    1.000
    P16      P        0.89915    0.25329    0.39904    1.000
    O57      O        0.85330    0.23250    0.27970    1.000
    O58      O        0.79930    0.15860    0.08090    1.000
    O59      O        0.73720    0.15160    0.87210    1.000
    O60      O        0.02410    0.28510    0.40220    1.000
    O61      O        0.75230    0.99900    0.98490    1.000
    O62      O        0.88830    0.15790    0.46980    1.000
    O63      O        0.83070    0.33490    0.45670    1.000
    O64      O        0.92740    0.08890    0.93020    1.000
    H8       H        0.97600    0.11200    0.96400    1.000
