# CIF file generated by openbabel 3.1.0, see https://openbabel.org
data_I
_chemical_name_common 'image0'
_cell_length_a 38.596
_cell_length_b 15.279
_cell_length_c 23.6
_cell_angle_alpha 90
_cell_angle_beta 101.29
_cell_angle_gamma 90
_space_group_name_H-M_alt 'P 1'
_space_group_name_Hall 'P 1'
loop_
    _symmetry_equiv_pos_as_xyz
    x,y,z
loop_
    _atom_site_label
    _atom_site_type_symbol
    _atom_site_fract_x
    _atom_site_fract_y
    _atom_site_fract_z
    _atom_site_occupancy
    Zn1      Zn       0.25603    0.87902    0.37174    1.000
    Zn2      Zn       0.18682    0.99616    0.30468    1.000
    C1       C        0.20455    0.76810    0.21220    1.000
    C2       C        0.22564    0.69670    0.20870    1.000
    H1       H        0.24630    0.68910    0.23600    1.000
    C3       C        0.21646    0.63620    0.16500    1.000
    C4       C        0.18606    0.64850    0.12460    1.000
    H2       H        0.17930    0.60780    0.09520    1.000
    C5       C        0.16590    0.72030    0.12770    1.000
    C6       C        0.17420    0.78000    0.17040    1.000
    H3       H        0.15980    0.82840    0.17170    1.000
    C7       C        0.21391    0.83280    0.26050    1.000
    C8       C        0.23834    0.55650    0.16300    1.000
    C9       C        0.13757    0.79090    0.03810    1.000
    C10      C        0.10614    0.81020    0.99440    1.000
    C11      C        0.10838    0.86760    0.95170    1.000
    H4       H        0.12970    0.89470    0.95010    1.000
    C12      C        0.07770    0.88600    0.90940    1.000
    H5       H        0.07910    0.92510    0.87970    1.000
    C13      C        0.04616    0.84630    0.91190    1.000
    C14      C        0.01518    0.86110    0.86700    1.000
    C15      C        0.98093    0.76090    0.91580    1.000
    C16      C        0.01206    0.74500    0.96070    1.000
    C17      C        0.01065    0.68910    0.00520    1.000
    H6       H        0.98960    0.66140    0.00780    1.000
    C18      C        0.04110    0.67360    0.04700    1.000
    H7       H        0.03980    0.63630    0.07760    1.000
    C19      C        0.07219    0.71120    0.04410    1.000
    C20      C        0.10351    0.68950    0.08840    1.000
    C21      C        0.07485    0.76940    0.00000    1.000
    C22      C        0.04397    0.78780    0.95730    1.000
    C23      C        0.95617    0.81450    0.81990    1.000
    C24      C        0.95828    0.75570    0.77660    1.000
    H8       H        0.97750    0.71810    0.77980    1.000
    C25      C        0.93162    0.75320    0.72870    1.000
    C26      C        0.90389    0.81230    0.72540    1.000
    H9       H        0.88550    0.81100    0.69340    1.000
    C27      C        0.90310    0.87180    0.76780    1.000
    C28      C        0.92983    0.87400    0.81590    1.000
    H10      H        0.92980    0.91520    0.84490    1.000
    C29      C        0.93320    0.69110    0.68150    1.000
    C30      C        0.87330    0.93850    0.76060    1.000
    C31      C        0.16767    0.86960    0.45400    1.000
    C32      C        0.13454    0.90250    0.45540    1.000
    H11      H        0.12410    0.94380    0.42840    1.000
    C33      C        0.11724    0.87300    0.49770    1.000
    C34      C        0.13239    0.81430    0.53840    1.000
    H12      H        0.12030    0.79600    0.56670    1.000
    C35      C        0.16572    0.78170    0.53780    1.000
    C36      C        0.18301    0.81130    0.49510    1.000
    H13      H        0.20560    0.79080    0.49460    1.000
    C37      C        0.18668    0.90140    0.40860    1.000
    C38      C        0.18316    0.71950    0.58180    1.000
    C39      C        0.05400    0.87630    0.45970    1.000
    C40      C        0.01998    0.91680    0.45930    1.000
    C41      C        0.99118    0.88970    0.42020    1.000
    H14      H        0.99330    0.84660    0.39330    1.000
    C42      C        0.04246    0.07100    0.57860    1.000
    H15      H        0.06220    0.08780    0.60580    1.000
    C43      C        0.04578    0.01060    0.53900    1.000
    C44      C        0.08136    0.97360    0.53860    1.000
    C45      C        0.01651    0.98120    0.49900    1.000
    N1       N        0.13421    0.73550    0.08330    1.000
    N2       N        0.98496    0.81430    0.87070    1.000
    N3       N        0.08242    0.90920    0.49980    1.000
    O1       O        0.24125    0.82070    0.29768    1.000
    O2       O        0.19257    0.89470    0.26049    1.000
    O3       O        0.22394    0.48990    0.13819    1.000
    O4       O        0.27044    0.56400    0.18630    1.000
    O5       O        0.95995    0.65380    0.67790    1.000
    O6       O        0.90455    0.68640    0.64420    1.000
    H16      H        0.90690    0.65090    0.61910    1.000
    O7       O        0.84787    0.92210    0.72140    1.000
    O8       O        0.87560    0.00180    0.79060    1.000
    O9       O        0.10388    0.63920    0.12700    1.000
    O10      O        0.16563    0.82310    0.03630    1.000
    O11      O        0.01544    0.91190    0.82820    1.000
    O12      O        0.95293    0.72830    0.91720    1.000
    O13      O        0.21646    0.87020    0.40931    1.000
    O14      O        0.17253    0.95730    0.37370    1.000
    O15      O        0.21411    0.69850    0.57949    1.000
    O16      O        0.16765    0.69130    0.61850    1.000
    O17      O        0.10763    0.00030    0.56920    1.000
    O18      O        0.05796    0.81990    0.42680    1.000
    Zn3      Zn       0.75603    0.37902    0.37174    1.000
    Zn4      Zn       0.68682    0.49616    0.30468    1.000
    C46      C        0.70455    0.26810    0.21220    1.000
    C47      C        0.72564    0.19670    0.20870    1.000
    H17      H        0.74630    0.18910    0.23600    1.000
    C48      C        0.71646    0.13620    0.16500    1.000
    C49      C        0.68606    0.14850    0.12460    1.000
    H18      H        0.67930    0.10780    0.09520    1.000
    C50      C        0.66590    0.22030    0.12770    1.000
    C51      C        0.67420    0.28000    0.17040    1.000
    H19      H        0.65980    0.32840    0.17170    1.000
    C52      C        0.71391    0.33280    0.26050    1.000
    C53      C        0.73834    0.05650    0.16300    1.000
    C54      C        0.63757    0.29090    0.03810    1.000
    C55      C        0.60614    0.31020    0.99440    1.000
    C56      C        0.60838    0.36760    0.95170    1.000
    H20      H        0.62970    0.39470    0.95010    1.000
    C57      C        0.57770    0.38600    0.90940    1.000
    H21      H        0.57910    0.42510    0.87970    1.000
    C58      C        0.54616    0.34630    0.91190    1.000
    C59      C        0.51518    0.36110    0.86700    1.000
    C60      C        0.48093    0.26090    0.91580    1.000
    C61      C        0.51206    0.24500    0.96070    1.000
    C62      C        0.51065    0.18910    0.00520    1.000
    H22      H        0.48960    0.16140    0.00780    1.000
    C63      C        0.54110    0.17360    0.04700    1.000
    H23      H        0.53980    0.13630    0.07760    1.000
    C64      C        0.57219    0.21120    0.04410    1.000
    C65      C        0.60351    0.18950    0.08840    1.000
    C66      C        0.57485    0.26940    0.00000    1.000
    C67      C        0.54397    0.28780    0.95730    1.000
    C68      C        0.45617    0.31450    0.81990    1.000
    C69      C        0.45828    0.25570    0.77660    1.000
    H24      H        0.47750    0.21810    0.77980    1.000
    C70      C        0.43162    0.25320    0.72870    1.000
    C71      C        0.40389    0.31230    0.72540    1.000
    H25      H        0.38550    0.31100    0.69340    1.000
    C72      C        0.40310    0.37180    0.76780    1.000
    C73      C        0.42983    0.37400    0.81590    1.000
    H26      H        0.42980    0.41520    0.84490    1.000
    C74      C        0.43320    0.19110    0.68150    1.000
    C75      C        0.37330    0.43850    0.76060    1.000
    C76      C        0.66767    0.36960    0.45400    1.000
    C77      C        0.63454    0.40250    0.45540    1.000
    H27      H        0.62410    0.44380    0.42840    1.000
    C78      C        0.61724    0.37300    0.49770    1.000
    C79      C        0.63239    0.31430    0.53840    1.000
    H28      H        0.62030    0.29600    0.56670    1.000
    C80      C        0.66572    0.28170    0.53780    1.000
    C81      C        0.68301    0.31130    0.49510    1.000
    H29      H        0.70560    0.29080    0.49460    1.000
    C82      C        0.68668    0.40140    0.40860    1.000
    C83      C        0.68316    0.21950    0.58180    1.000
    C84      C        0.55400    0.37630    0.45970    1.000
    C85      C        0.51998    0.41680    0.45930    1.000
    C86      C        0.49118    0.38970    0.42020    1.000
    H30      H        0.49330    0.34660    0.39330    1.000
    C87      C        0.54246    0.57100    0.57860    1.000
    H31      H        0.56220    0.58780    0.60580    1.000
    C88      C        0.54578    0.51060    0.53900    1.000
    C89      C        0.58136    0.47360    0.53860    1.000
    C90      C        0.51651    0.48120    0.49900    1.000
    N4       N        0.63421    0.23550    0.08330    1.000
    N5       N        0.48496    0.31430    0.87070    1.000
    N6       N        0.58242    0.40920    0.49980    1.000
    O19      O        0.74125    0.32070    0.29768    1.000
    O20      O        0.69257    0.39470    0.26049    1.000
    O21      O        0.72394    0.98990    0.13819    1.000
    O22      O        0.77044    0.06400    0.18630    1.000
    O23      O        0.45995    0.15380    0.67790    1.000
    O24      O        0.40455    0.18640    0.64420    1.000
    H32      H        0.40690    0.15090    0.61910    1.000
    O25      O        0.34787    0.42210    0.72140    1.000
    O26      O        0.37560    0.50180    0.79060    1.000
    O27      O        0.60388    0.13920    0.12700    1.000
    O28      O        0.66563    0.32310    0.03630    1.000
    O29      O        0.51544    0.41190    0.82820    1.000
    O30      O        0.45293    0.22830    0.91720    1.000
    O31      O        0.71646    0.37020    0.40931    1.000
    O32      O        0.67253    0.45730    0.37370    1.000
    O33      O        0.71411    0.19850    0.57949    1.000
    O34      O        0.66765    0.19130    0.61850    1.000
    O35      O        0.60763    0.50030    0.56920    1.000
    O36      O        0.55796    0.31990    0.42680    1.000
    Zn5      Zn       0.74397    0.87902    0.12826    1.000
    Zn6      Zn       0.81318    0.99616    0.19532    1.000
    C91      C        0.79545    0.76810    0.28780    1.000
    C92      C        0.77436    0.69670    0.29130    1.000
    H33      H        0.75370    0.68910    0.26400    1.000
    C93      C        0.78354    0.63620    0.33500    1.000
    C94      C        0.81394    0.64850    0.37540    1.000
    H34      H        0.82070    0.60780    0.40480    1.000
    C95      C        0.83410    0.72030    0.37230    1.000
    C96      C        0.82580    0.78000    0.32960    1.000
    H35      H        0.84020    0.82840    0.32830    1.000
    C97      C        0.78609    0.83280    0.23950    1.000
    C98      C        0.76166    0.55650    0.33700    1.000
    C99      C        0.86243    0.79090    0.46190    1.000
    C100     C        0.89386    0.81020    0.50560    1.000
    C101     C        0.89162    0.86760    0.54830    1.000
    H36      H        0.87030    0.89470    0.54990    1.000
    C102     C        0.92230    0.88600    0.59060    1.000
    H37      H        0.92090    0.92510    0.62030    1.000
    C103     C        0.95384    0.84630    0.58810    1.000
    C104     C        0.98482    0.86110    0.63300    1.000
    C105     C        0.01907    0.76090    0.58420    1.000
    C106     C        0.98794    0.74500    0.53930    1.000
    C107     C        0.98935    0.68910    0.49480    1.000
    H38      H        0.01040    0.66140    0.49220    1.000
    C108     C        0.95890    0.67360    0.45300    1.000
    H39      H        0.96020    0.63630    0.42240    1.000
    C109     C        0.92781    0.71120    0.45590    1.000
    C110     C        0.89649    0.68950    0.41160    1.000
    C111     C        0.92515    0.76940    0.50000    1.000
    C112     C        0.95603    0.78780    0.54270    1.000
    C113     C        0.04383    0.81450    0.68010    1.000
    C114     C        0.04172    0.75570    0.72340    1.000
    H40      H        0.02250    0.71810    0.72020    1.000
    C115     C        0.06838    0.75320    0.77130    1.000
    C116     C        0.09611    0.81230    0.77460    1.000
    H41      H        0.11450    0.81100    0.80660    1.000
    C117     C        0.09690    0.87180    0.73220    1.000
    C118     C        0.07017    0.87400    0.68410    1.000
    H42      H        0.07020    0.91520    0.65510    1.000
    C119     C        0.06680    0.69110    0.81850    1.000
    C120     C        0.12670    0.93850    0.73940    1.000
    C121     C        0.83233    0.86960    0.04600    1.000
    C122     C        0.86546    0.90250    0.04460    1.000
    H43      H        0.87590    0.94380    0.07160    1.000
    C123     C        0.88276    0.87300    0.00230    1.000
    C124     C        0.86761    0.81430    0.96160    1.000
    H44      H        0.87970    0.79600    0.93330    1.000
    C125     C        0.83428    0.78170    0.96220    1.000
    C126     C        0.81699    0.81130    0.00490    1.000
    H45      H        0.79440    0.79080    0.00540    1.000
    C127     C        0.81332    0.90140    0.09140    1.000
    C128     C        0.81684    0.71950    0.91820    1.000
    C129     C        0.94600    0.87630    0.04030    1.000
    C130     C        0.98002    0.91680    0.04070    1.000
    C131     C        0.00882    0.88970    0.07980    1.000
    H46      H        0.00670    0.84660    0.10670    1.000
    C132     C        0.95754    0.07100    0.92140    1.000
    H47      H        0.93780    0.08780    0.89420    1.000
    C133     C        0.95422    0.01060    0.96100    1.000
    C134     C        0.91864    0.97360    0.96140    1.000
    C135     C        0.98349    0.98120    0.00100    1.000
    N7       N        0.86579    0.73550    0.41670    1.000
    N8       N        0.01504    0.81430    0.62930    1.000
    N9       N        0.91758    0.90920    0.00020    1.000
    O37      O        0.75875    0.82070    0.20232    1.000
    O38      O        0.80743    0.89470    0.23951    1.000
    O39      O        0.77606    0.48990    0.36181    1.000
    O40      O        0.72956    0.56400    0.31370    1.000
    O41      O        0.04005    0.65380    0.82210    1.000
    O42      O        0.09545    0.68640    0.85580    1.000
    H48      H        0.09310    0.65090    0.88090    1.000
    O43      O        0.15213    0.92210    0.77860    1.000
    O44      O        0.12440    0.00180    0.70940    1.000
    O45      O        0.89612    0.63920    0.37300    1.000
    O46      O        0.83437    0.82310    0.46370    1.000
    O47      O        0.98456    0.91190    0.67180    1.000
    O48      O        0.04707    0.72830    0.58280    1.000
    O49      O        0.78354    0.87020    0.09069    1.000
    O50      O        0.82747    0.95730    0.12630    1.000
    O51      O        0.78589    0.69850    0.92051    1.000
    O52      O        0.83235    0.69130    0.88150    1.000
    O53      O        0.89237    0.00030    0.93080    1.000
    O54      O        0.94204    0.81990    0.07320    1.000
    Zn7      Zn       0.24397    0.37902    0.12826    1.000
    Zn8      Zn       0.31318    0.49616    0.19532    1.000
    C136     C        0.29545    0.26810    0.28780    1.000
    C137     C        0.27436    0.19670    0.29130    1.000
    H49      H        0.25370    0.18910    0.26400    1.000
    C138     C        0.28354    0.13620    0.33500    1.000
    C139     C        0.31394    0.14850    0.37540    1.000
    H50      H        0.32070    0.10780    0.40480    1.000
    C140     C        0.33410    0.22030    0.37230    1.000
    C141     C        0.32580    0.28000    0.32960    1.000
    H51      H        0.34020    0.32840    0.32830    1.000
    C142     C        0.28609    0.33280    0.23950    1.000
    C143     C        0.26166    0.05650    0.33700    1.000
    C144     C        0.36243    0.29090    0.46190    1.000
    C145     C        0.39386    0.31020    0.50560    1.000
    C146     C        0.39162    0.36760    0.54830    1.000
    H52      H        0.37030    0.39470    0.54990    1.000
    C147     C        0.42230    0.38600    0.59060    1.000
    H53      H        0.42090    0.42510    0.62030    1.000
    C148     C        0.45384    0.34630    0.58810    1.000
    C149     C        0.48482    0.36110    0.63300    1.000
    C150     C        0.51907    0.26090    0.58420    1.000
    C151     C        0.48794    0.24500    0.53930    1.000
    C152     C        0.48935    0.18910    0.49480    1.000
    H54      H        0.51040    0.16140    0.49220    1.000
    C153     C        0.45890    0.17360    0.45300    1.000
    H55      H        0.46020    0.13630    0.42240    1.000
    C154     C        0.42781    0.21120    0.45590    1.000
    C155     C        0.39649    0.18950    0.41160    1.000
    C156     C        0.42515    0.26940    0.50000    1.000
    C157     C        0.45603    0.28780    0.54270    1.000
    C158     C        0.54383    0.31450    0.68010    1.000
    C159     C        0.54172    0.25570    0.72340    1.000
    H56      H        0.52250    0.21810    0.72020    1.000
    C160     C        0.56838    0.25320    0.77130    1.000
    C161     C        0.59611    0.31230    0.77460    1.000
    H57      H        0.61450    0.31100    0.80660    1.000
    C162     C        0.59690    0.37180    0.73220    1.000
    C163     C        0.57017    0.37400    0.68410    1.000
    H58      H        0.57020    0.41520    0.65510    1.000
    C164     C        0.56680    0.19110    0.81850    1.000
    C165     C        0.62670    0.43850    0.73940    1.000
    C166     C        0.33233    0.36960    0.04600    1.000
    C167     C        0.36546    0.40250    0.04460    1.000
    H59      H        0.37590    0.44380    0.07160    1.000
    C168     C        0.38276    0.37300    0.00230    1.000
    C169     C        0.36761    0.31430    0.96160    1.000
    H60      H        0.37970    0.29600    0.93330    1.000
    C170     C        0.33428    0.28170    0.96220    1.000
    C171     C        0.31699    0.31130    0.00490    1.000
    H61      H        0.29440    0.29080    0.00540    1.000
    C172     C        0.31332    0.40140    0.09140    1.000
    C173     C        0.31684    0.21950    0.91820    1.000
    C174     C        0.44600    0.37630    0.04030    1.000
    C175     C        0.48002    0.41680    0.04070    1.000
    C176     C        0.50882    0.38970    0.07980    1.000
    H62      H        0.50670    0.34660    0.10670    1.000
    C177     C        0.45754    0.57100    0.92140    1.000
    H63      H        0.43780    0.58780    0.89420    1.000
    C178     C        0.45422    0.51060    0.96100    1.000
    C179     C        0.41864    0.47360    0.96140    1.000
    C180     C        0.48349    0.48120    0.00100    1.000
    N10      N        0.36579    0.23550    0.41670    1.000
    N11      N        0.51504    0.31430    0.62930    1.000
    N12      N        0.41758    0.40920    0.00020    1.000
    O55      O        0.25875    0.32070    0.20232    1.000
    O56      O        0.30743    0.39470    0.23951    1.000
    O57      O        0.27606    0.98990    0.36181    1.000
    O58      O        0.22956    0.06400    0.31370    1.000
    O59      O        0.54005    0.15380    0.82210    1.000
    O60      O        0.59545    0.18640    0.85580    1.000
    H64      H        0.59310    0.15090    0.88090    1.000
    O61      O        0.65213    0.42210    0.77860    1.000
    O62      O        0.62440    0.50180    0.70940    1.000
    O63      O        0.39612    0.13920    0.37300    1.000
    O64      O        0.33437    0.32310    0.46370    1.000
    O65      O        0.48456    0.41190    0.67180    1.000
    O66      O        0.54707    0.22830    0.58280    1.000
    O67      O        0.28354    0.37020    0.09069    1.000
    O68      O        0.32747    0.45730    0.12630    1.000
    O69      O        0.28589    0.19850    0.92051    1.000
    O70      O        0.33235    0.19130    0.88150    1.000
    O71      O        0.39237    0.50030    0.93080    1.000
    O72      O        0.44204    0.31990    0.07320    1.000
    Zn9      Zn       0.74397    0.12098    0.62826    1.000
    Zn10     Zn       0.81318    0.00384    0.69532    1.000
    C181     C        0.79545    0.23190    0.78780    1.000
    C182     C        0.77436    0.30330    0.79130    1.000
    H65      H        0.75370    0.31090    0.76400    1.000
    C183     C        0.78354    0.36380    0.83500    1.000
    C184     C        0.81394    0.35150    0.87540    1.000
    H66      H        0.82070    0.39220    0.90480    1.000
    C185     C        0.83410    0.27970    0.87230    1.000
    C186     C        0.82580    0.22000    0.82960    1.000
    H67      H        0.84020    0.17160    0.82830    1.000
    C187     C        0.78609    0.16720    0.73950    1.000
    C188     C        0.76166    0.44350    0.83700    1.000
    C189     C        0.86243    0.20910    0.96190    1.000
    C190     C        0.89386    0.18980    0.00560    1.000
    C191     C        0.89162    0.13240    0.04830    1.000
    H68      H        0.87030    0.10530    0.04990    1.000
    C192     C        0.92230    0.11400    0.09060    1.000
    H69      H        0.92090    0.07490    0.12030    1.000
    C193     C        0.95384    0.15370    0.08810    1.000
    C194     C        0.98482    0.13890    0.13300    1.000
    C195     C        0.01907    0.23910    0.08420    1.000
    C196     C        0.98794    0.25500    0.03930    1.000
    C197     C        0.98935    0.31090    0.99480    1.000
    H70      H        0.01040    0.33860    0.99220    1.000
    C198     C        0.95890    0.32640    0.95300    1.000
    H71      H        0.96020    0.36370    0.92240    1.000
    C199     C        0.92781    0.28880    0.95590    1.000
    C200     C        0.89649    0.31050    0.91160    1.000
    C201     C        0.92515    0.23060    0.00000    1.000
    C202     C        0.95603    0.21220    0.04270    1.000
    C203     C        0.04383    0.18550    0.18010    1.000
    C204     C        0.04172    0.24430    0.22340    1.000
    H72      H        0.02250    0.28190    0.22020    1.000
    C205     C        0.06838    0.24680    0.27130    1.000
    C206     C        0.09611    0.18770    0.27460    1.000
    H73      H        0.11450    0.18900    0.30660    1.000
    C207     C        0.09690    0.12820    0.23220    1.000
    C208     C        0.07017    0.12600    0.18410    1.000
    H74      H        0.07020    0.08480    0.15510    1.000
    C209     C        0.06680    0.30890    0.31850    1.000
    C210     C        0.12670    0.06150    0.23940    1.000
    C211     C        0.83233    0.13040    0.54600    1.000
    C212     C        0.86546    0.09750    0.54460    1.000
    H75      H        0.87590    0.05620    0.57160    1.000
    C213     C        0.88276    0.12700    0.50230    1.000
    C214     C        0.86761    0.18570    0.46160    1.000
    H76      H        0.87970    0.20400    0.43330    1.000
    C215     C        0.83428    0.21830    0.46220    1.000
    C216     C        0.81699    0.18870    0.50490    1.000
    H77      H        0.79440    0.20920    0.50540    1.000
    C217     C        0.81332    0.09860    0.59140    1.000
    C218     C        0.81684    0.28050    0.41820    1.000
    C219     C        0.94600    0.12370    0.54030    1.000
    C220     C        0.98002    0.08320    0.54070    1.000
    C221     C        0.00882    0.11030    0.57980    1.000
    H78      H        0.00670    0.15340    0.60670    1.000
    C222     C        0.95754    0.92900    0.42140    1.000
    H79      H        0.93780    0.91220    0.39420    1.000
    C223     C        0.95422    0.98940    0.46100    1.000
    C224     C        0.91864    0.02640    0.46140    1.000
    C225     C        0.98349    0.01880    0.50100    1.000
    N13      N        0.86579    0.26450    0.91670    1.000
    N14      N        0.01504    0.18570    0.12930    1.000
    N15      N        0.91758    0.09080    0.50020    1.000
    O73      O        0.75875    0.17930    0.70232    1.000
    O74      O        0.80743    0.10530    0.73951    1.000
    O75      O        0.77606    0.51010    0.86181    1.000
    O76      O        0.72956    0.43600    0.81370    1.000
    O77      O        0.04005    0.34620    0.32210    1.000
    O78      O        0.09545    0.31360    0.35580    1.000
    H80      H        0.09310    0.34910    0.38090    1.000
    O79      O        0.15213    0.07790    0.27860    1.000
    O80      O        0.12440    0.99820    0.20940    1.000
    O81      O        0.89612    0.36080    0.87300    1.000
    O82      O        0.83437    0.17690    0.96370    1.000
    O83      O        0.98456    0.08810    0.17180    1.000
    O84      O        0.04707    0.27170    0.08280    1.000
    O85      O        0.78354    0.12980    0.59069    1.000
    O86      O        0.82747    0.04270    0.62630    1.000
    O87      O        0.78589    0.30150    0.42051    1.000
    O88      O        0.83235    0.30870    0.38150    1.000
    O89      O        0.89237    0.99970    0.43080    1.000
    O90      O        0.94204    0.18010    0.57320    1.000
    Zn11     Zn       0.24397    0.62098    0.62826    1.000
    Zn12     Zn       0.31318    0.50384    0.69532    1.000
    C226     C        0.29545    0.73190    0.78780    1.000
    C227     C        0.27436    0.80330    0.79130    1.000
    H81      H        0.25370    0.81090    0.76400    1.000
    C228     C        0.28354    0.86380    0.83500    1.000
    C229     C        0.31394    0.85150    0.87540    1.000
    H82      H        0.32070    0.89220    0.90480    1.000
    C230     C        0.33410    0.77970    0.87230    1.000
    C231     C        0.32580    0.72000    0.82960    1.000
    H83      H        0.34020    0.67160    0.82830    1.000
    C232     C        0.28609    0.66720    0.73950    1.000
    C233     C        0.26166    0.94350    0.83700    1.000
    C234     C        0.36243    0.70910    0.96190    1.000
    C235     C        0.39386    0.68980    0.00560    1.000
    C236     C        0.39162    0.63240    0.04830    1.000
    H84      H        0.37030    0.60530    0.04990    1.000
    C237     C        0.42230    0.61400    0.09060    1.000
    H85      H        0.42090    0.57490    0.12030    1.000
    C238     C        0.45384    0.65370    0.08810    1.000
    C239     C        0.48482    0.63890    0.13300    1.000
    C240     C        0.51907    0.73910    0.08420    1.000
    C241     C        0.48794    0.75500    0.03930    1.000
    C242     C        0.48935    0.81090    0.99480    1.000
    H86      H        0.51040    0.83860    0.99220    1.000
    C243     C        0.45890    0.82640    0.95300    1.000
    H87      H        0.46020    0.86370    0.92240    1.000
    C244     C        0.42781    0.78880    0.95590    1.000
    C245     C        0.39649    0.81050    0.91160    1.000
    C246     C        0.42515    0.73060    0.00000    1.000
    C247     C        0.45603    0.71220    0.04270    1.000
    C248     C        0.54383    0.68550    0.18010    1.000
    C249     C        0.54172    0.74430    0.22340    1.000
    H88      H        0.52250    0.78190    0.22020    1.000
    C250     C        0.56838    0.74680    0.27130    1.000
    C251     C        0.59611    0.68770    0.27460    1.000
    H89      H        0.61450    0.68900    0.30660    1.000
    C252     C        0.59690    0.62820    0.23220    1.000
    C253     C        0.57017    0.62600    0.18410    1.000
    H90      H        0.57020    0.58480    0.15510    1.000
    C254     C        0.56680    0.80890    0.31850    1.000
    C255     C        0.62670    0.56150    0.23940    1.000
    C256     C        0.33233    0.63040    0.54600    1.000
    C257     C        0.36546    0.59750    0.54460    1.000
    H91      H        0.37590    0.55620    0.57160    1.000
    C258     C        0.38276    0.62700    0.50230    1.000
    C259     C        0.36761    0.68570    0.46160    1.000
    H92      H        0.37970    0.70400    0.43330    1.000
    C260     C        0.33428    0.71830    0.46220    1.000
    C261     C        0.31699    0.68870    0.50490    1.000
    H93      H        0.29440    0.70920    0.50540    1.000
    C262     C        0.31332    0.59860    0.59140    1.000
    C263     C        0.31684    0.78050    0.41820    1.000
    C264     C        0.44600    0.62370    0.54030    1.000
    C265     C        0.48002    0.58320    0.54070    1.000
    C266     C        0.50882    0.61030    0.57980    1.000
    H94      H        0.50670    0.65340    0.60670    1.000
    C267     C        0.45754    0.42900    0.42140    1.000
    H95      H        0.43780    0.41220    0.39420    1.000
    C268     C        0.45422    0.48940    0.46100    1.000
    C269     C        0.41864    0.52640    0.46140    1.000
    C270     C        0.48349    0.51880    0.50100    1.000
    N16      N        0.36579    0.76450    0.91670    1.000
    N17      N        0.51504    0.68570    0.12930    1.000
    N18      N        0.41758    0.59080    0.50020    1.000
    O91      O        0.25875    0.67930    0.70232    1.000
    O92      O        0.30743    0.60530    0.73951    1.000
    O93      O        0.27606    0.01010    0.86181    1.000
    O94      O        0.22956    0.93600    0.81370    1.000
    O95      O        0.54005    0.84620    0.32210    1.000
    O96      O        0.59545    0.81360    0.35580    1.000
    H96      H        0.59310    0.84910    0.38090    1.000
    O97      O        0.65213    0.57790    0.27860    1.000
    O98      O        0.62440    0.49820    0.20940    1.000
    O99      O        0.39612    0.86080    0.87300    1.000
    O100     O        0.33437    0.67690    0.96370    1.000
    O101     O        0.48456    0.58810    0.17180    1.000
    O102     O        0.54707    0.77170    0.08280    1.000
    O103     O        0.28354    0.62980    0.59069    1.000
    O104     O        0.32747    0.54270    0.62630    1.000
    O105     O        0.28589    0.80150    0.42051    1.000
    O106     O        0.33235    0.80870    0.38150    1.000
    O107     O        0.39237    0.49970    0.43080    1.000
    O108     O        0.44204    0.68010    0.57320    1.000
    Zn13     Zn       0.25603    0.12098    0.87174    1.000
    Zn14     Zn       0.18682    0.00384    0.80468    1.000
    C271     C        0.20455    0.23190    0.71220    1.000
    C272     C        0.22564    0.30330    0.70870    1.000
    H97      H        0.24630    0.31090    0.73600    1.000
    C273     C        0.21646    0.36380    0.66500    1.000
    C274     C        0.18606    0.35150    0.62460    1.000
    H98      H        0.17930    0.39220    0.59520    1.000
    C275     C        0.16590    0.27970    0.62770    1.000
    C276     C        0.17420    0.22000    0.67040    1.000
    H99      H        0.15980    0.17160    0.67170    1.000
    C277     C        0.21391    0.16720    0.76050    1.000
    C278     C        0.23834    0.44350    0.66300    1.000
    C279     C        0.13757    0.20910    0.53810    1.000
    C280     C        0.10614    0.18980    0.49440    1.000
    C281     C        0.10838    0.13240    0.45170    1.000
    H100     H        0.12970    0.10530    0.45010    1.000
    C282     C        0.07770    0.11400    0.40940    1.000
    H101     H        0.07910    0.07490    0.37970    1.000
    C283     C        0.04616    0.15370    0.41190    1.000
    C284     C        0.01518    0.13890    0.36700    1.000
    C285     C        0.98093    0.23910    0.41580    1.000
    C286     C        0.01206    0.25500    0.46070    1.000
    C287     C        0.01065    0.31090    0.50520    1.000
    H102     H        0.98960    0.33860    0.50780    1.000
    C288     C        0.04110    0.32640    0.54700    1.000
    H103     H        0.03980    0.36370    0.57760    1.000
    C289     C        0.07219    0.28880    0.54410    1.000
    C290     C        0.10351    0.31050    0.58840    1.000
    C291     C        0.07485    0.23060    0.50000    1.000
    C292     C        0.04397    0.21220    0.45730    1.000
    C293     C        0.95617    0.18550    0.31990    1.000
    C294     C        0.95828    0.24430    0.27660    1.000
    H104     H        0.97750    0.28190    0.27980    1.000
    C295     C        0.93162    0.24680    0.22870    1.000
    C296     C        0.90389    0.18770    0.22540    1.000
    H105     H        0.88550    0.18900    0.19340    1.000
    C297     C        0.90310    0.12820    0.26780    1.000
    C298     C        0.92983    0.12600    0.31590    1.000
    H106     H        0.92980    0.08480    0.34490    1.000
    C299     C        0.93320    0.30890    0.18150    1.000
    C300     C        0.87330    0.06150    0.26060    1.000
    C301     C        0.16767    0.13040    0.95400    1.000
    C302     C        0.13454    0.09750    0.95540    1.000
    H107     H        0.12410    0.05620    0.92840    1.000
    C303     C        0.11724    0.12700    0.99770    1.000
    C304     C        0.13239    0.18570    0.03840    1.000
    H108     H        0.12030    0.20400    0.06670    1.000
    C305     C        0.16572    0.21830    0.03780    1.000
    C306     C        0.18301    0.18870    0.99510    1.000
    H109     H        0.20560    0.20920    0.99460    1.000
    C307     C        0.18668    0.09860    0.90860    1.000
    C308     C        0.18316    0.28050    0.08180    1.000
    C309     C        0.05400    0.12370    0.95970    1.000
    C310     C        0.01998    0.08320    0.95930    1.000
    C311     C        0.99118    0.11030    0.92020    1.000
    H110     H        0.99330    0.15340    0.89330    1.000
    C312     C        0.04246    0.92900    0.07860    1.000
    H111     H        0.06220    0.91220    0.10580    1.000
    C313     C        0.04578    0.98940    0.03900    1.000
    C314     C        0.08136    0.02640    0.03860    1.000
    C315     C        0.01651    0.01880    0.99900    1.000
    N19      N        0.13421    0.26450    0.58330    1.000
    N20      N        0.98496    0.18570    0.37070    1.000
    N21      N        0.08242    0.09080    0.99980    1.000
    O109     O        0.24125    0.17930    0.79768    1.000
    O110     O        0.19257    0.10530    0.76049    1.000
    O111     O        0.22394    0.51010    0.63819    1.000
    O112     O        0.27044    0.43600    0.68630    1.000
    O113     O        0.95995    0.34620    0.17790    1.000
    O114     O        0.90455    0.31360    0.14420    1.000
    H112     H        0.90690    0.34910    0.11910    1.000
    O115     O        0.84787    0.07790    0.22140    1.000
    O116     O        0.87560    0.99820    0.29060    1.000
    O117     O        0.10388    0.36080    0.62700    1.000
    O118     O        0.16563    0.17690    0.53630    1.000
    O119     O        0.01544    0.08810    0.32820    1.000
    O120     O        0.95293    0.27170    0.41720    1.000
    O121     O        0.21646    0.12980    0.90931    1.000
    O122     O        0.17253    0.04270    0.87370    1.000
    O123     O        0.21411    0.30150    0.07949    1.000
    O124     O        0.16765    0.30870    0.11850    1.000
    O125     O        0.10763    0.99970    0.06920    1.000
    O126     O        0.05796    0.18010    0.92680    1.000
    Zn15     Zn       0.75603    0.62098    0.87174    1.000
    Zn16     Zn       0.68682    0.50384    0.80468    1.000
    C316     C        0.70455    0.73190    0.71220    1.000
    C317     C        0.72564    0.80330    0.70870    1.000
    H113     H        0.74630    0.81090    0.73600    1.000
    C318     C        0.71646    0.86380    0.66500    1.000
    C319     C        0.68606    0.85150    0.62460    1.000
    H114     H        0.67930    0.89220    0.59520    1.000
    C320     C        0.66590    0.77970    0.62770    1.000
    C321     C        0.67420    0.72000    0.67040    1.000
    H115     H        0.65980    0.67160    0.67170    1.000
    C322     C        0.71391    0.66720    0.76050    1.000
    C323     C        0.73834    0.94350    0.66300    1.000
    C324     C        0.63757    0.70910    0.53810    1.000
    C325     C        0.60614    0.68980    0.49440    1.000
    C326     C        0.60838    0.63240    0.45170    1.000
    H116     H        0.62970    0.60530    0.45010    1.000
    C327     C        0.57770    0.61400    0.40940    1.000
    H117     H        0.57910    0.57490    0.37970    1.000
    C328     C        0.54616    0.65370    0.41190    1.000
    C329     C        0.51518    0.63890    0.36700    1.000
    C330     C        0.48093    0.73910    0.41580    1.000
    C331     C        0.51206    0.75500    0.46070    1.000
    C332     C        0.51065    0.81090    0.50520    1.000
    H118     H        0.48960    0.83860    0.50780    1.000
    C333     C        0.54110    0.82640    0.54700    1.000
    H119     H        0.53980    0.86370    0.57760    1.000
    C334     C        0.57219    0.78880    0.54410    1.000
    C335     C        0.60351    0.81050    0.58840    1.000
    C336     C        0.57485    0.73060    0.50000    1.000
    C337     C        0.54397    0.71220    0.45730    1.000
    C338     C        0.45617    0.68550    0.31990    1.000
    C339     C        0.45828    0.74430    0.27660    1.000
    H120     H        0.47750    0.78190    0.27980    1.000
    C340     C        0.43162    0.74680    0.22870    1.000
    C341     C        0.40389    0.68770    0.22540    1.000
    H121     H        0.38550    0.68900    0.19340    1.000
    C342     C        0.40310    0.62820    0.26780    1.000
    C343     C        0.42983    0.62600    0.31590    1.000
    H122     H        0.42980    0.58480    0.34490    1.000
    C344     C        0.43320    0.80890    0.18150    1.000
    C345     C        0.37330    0.56150    0.26060    1.000
    C346     C        0.66767    0.63040    0.95400    1.000
    C347     C        0.63454    0.59750    0.95540    1.000
    H123     H        0.62410    0.55620    0.92840    1.000
    C348     C        0.61724    0.62700    0.99770    1.000
    C349     C        0.63239    0.68570    0.03840    1.000
    H124     H        0.62030    0.70400    0.06670    1.000
    C350     C        0.66572    0.71830    0.03780    1.000
    C351     C        0.68301    0.68870    0.99510    1.000
    H125     H        0.70560    0.70920    0.99460    1.000
    C352     C        0.68668    0.59860    0.90860    1.000
    C353     C        0.68316    0.78050    0.08180    1.000
    C354     C        0.55400    0.62370    0.95970    1.000
    C355     C        0.51998    0.58320    0.95930    1.000
    C356     C        0.49118    0.61030    0.92020    1.000
    H126     H        0.49330    0.65340    0.89330    1.000
    C357     C        0.54246    0.42900    0.07860    1.000
    H127     H        0.56220    0.41220    0.10580    1.000
    C358     C        0.54578    0.48940    0.03900    1.000
    C359     C        0.58136    0.52640    0.03860    1.000
    C360     C        0.51651    0.51880    0.99900    1.000
    N22      N        0.63421    0.76450    0.58330    1.000
    N23      N        0.48496    0.68570    0.37070    1.000
    N24      N        0.58242    0.59080    0.99980    1.000
    O127     O        0.74125    0.67930    0.79768    1.000
    O128     O        0.69257    0.60530    0.76049    1.000
    O129     O        0.72394    0.01010    0.63819    1.000
    O130     O        0.77044    0.93600    0.68630    1.000
    O131     O        0.45995    0.84620    0.17790    1.000
    O132     O        0.40455    0.81360    0.14420    1.000
    H128     H        0.40690    0.84910    0.11910    1.000
    O133     O        0.34787    0.57790    0.22140    1.000
    O134     O        0.37560    0.49820    0.29060    1.000
    O135     O        0.60388    0.86080    0.62700    1.000
    O136     O        0.66563    0.67690    0.53630    1.000
    O137     O        0.51544    0.58810    0.32820    1.000
    O138     O        0.45293    0.77170    0.41720    1.000
    O139     O        0.71646    0.62980    0.90931    1.000
    O140     O        0.67253    0.54270    0.87370    1.000
    O141     O        0.71411    0.80150    0.07949    1.000
    O142     O        0.66765    0.80870    0.11850    1.000
    O143     O        0.60763    0.49970    0.06920    1.000
    O144     O        0.55796    0.68010    0.92680    1.000
