# CIF file generated by openbabel 3.1.0, see https://openbabel.org
data_I
_chemical_name_common 'image0'
_cell_length_a 9.4644
_cell_length_b 12.7206
_cell_length_c 18.5539
_cell_angle_alpha 106.206
_cell_angle_beta 97.893
_cell_angle_gamma 100.266
_space_group_name_H-M_alt 'P 1'
_space_group_name_Hall 'P 1'
loop_
    _symmetry_equiv_pos_as_xyz
    x,y,z
loop_
    _atom_site_label
    _atom_site_type_symbol
    _atom_site_fract_x
    _atom_site_fract_y
    _atom_site_fract_z
    _atom_site_occupancy
    Ho1      Ho       0.26384    0.48509    0.49728    1.000
    O1       O        0.28400    0.33330    0.39430    1.000
    N1       N        0.45810    0.10630    0.17410    1.000
    C1       C        0.40170    0.91690    0.07400    1.000
    O2       O        0.52670    0.39130    0.42690    1.000
    N2       N        0.50410    0.64940    0.18080    1.000
    C2       C        0.47780    0.84700    0.10220    1.000
    O3       O        0.36450    0.56200    0.40770    1.000
    N3       N        0.06080    0.66430    0.86800    1.000
    C3       C        0.41860    0.73060    0.07810    1.000
    O4       O        0.61100    0.61350    0.43870    1.000
    C4       C        0.28190    0.68500    0.02990    1.000
    O5       O        0.17960    0.52380    0.61317    1.000
    C5       C        0.20590    0.75650    0.00380    1.000
    O6       O        0.94680    0.53290    0.58529    1.000
    C6       C        0.26600    0.87210    0.02350    1.000
    C7       C        0.47210    0.03990    0.09670    1.000
    H1       H        0.57740    0.04840    0.09480    1.000
    H2       H        0.42750    0.07180    0.05860    1.000
    C8       C        0.50850    0.65450    0.10080    1.000
    H3       H        0.61150    0.68120    0.09740    1.000
    H4       H        0.47210    0.57780    0.06410    1.000
    C9       C        0.05560    0.70880    0.95270    1.000
    H5       H        0.99920    0.76820    0.96000    1.000
    H6       H        0.00310    0.64700    0.96850    1.000
    C10      C        0.62070    0.89630    0.15780    1.000
    H7       H        0.66220    0.83570    0.16850    1.000
    H8       H        0.60470    0.94570    0.20550    1.000
    H9       H        0.68880    0.93990    0.13570    1.000
    C11      C        0.21680    0.56070    0.00450    1.000
    H10      H        0.29140    0.51980    0.98840    1.000
    H11      H        0.13420    0.54170    0.96150    1.000
    H12      H        0.18240    0.53950    0.04700    1.000
    C12      C        0.18210    0.94540    0.99150    1.000
    H13      H        0.13390    0.90460    0.93820    1.000
    H14      H        0.25000    0.01450    0.99370    1.000
    H15      H        0.10800    0.96440    0.02190    1.000
    C13      C        0.57760    0.16690    0.22740    1.000
    H16      H        0.67220    0.16250    0.21700    1.000
    C14      C        0.56410    0.23540    0.29720    1.000
    H17      H        0.64900    0.27600    0.33530    1.000
    C15      C        0.42740    0.24460    0.31140    1.000
    C16      C        0.30370    0.17800    0.25700    1.000
    H18      H        0.20830    0.18020    0.26710    1.000
    C17      C        0.32160    0.10930    0.18880    1.000
    H19      H        0.23800    0.06360    0.15160    1.000
    C18      C        0.41130    0.32850    0.38380    1.000
    C19      C        0.62580    0.63990    0.22260    1.000
    H20      H        0.71390    0.64300    0.20330    1.000
    C20      C        0.62330    0.62560    0.29290    1.000
    H21      H        0.71010    0.62050    0.32300    1.000
    C21      C        0.49400    0.61880    0.32020    1.000
    C22      C        0.36960    0.62950    0.27570    1.000
    H22      H        0.27990    0.62590    0.29350    1.000
    C23      C        0.37730    0.64530    0.20680    1.000
    H23      H        0.29280    0.65340    0.17660    1.000
    C24      C        0.48790    0.59640    0.39580    1.000
    C25      C        0.18460    0.64350    0.84540    1.000
    H24      H        0.27150    0.65790    0.88250    1.000
    C26      C        0.18590    0.60170    0.76900    1.000
    H25      H        0.27290    0.58570    0.75290    1.000
    C27      C        0.05900    0.58280    0.71530    1.000
    C28      C        0.93280    0.60340    0.74050    1.000
    H26      H        0.84400    0.58830    0.70460    1.000
    C29      C        0.93650    0.64620    0.81820    1.000
    H27      H        0.85090    0.66250    0.83590    1.000
    C30      C        0.06100    0.54200    0.62990    1.000
    Ho2      Ho       0.73616    0.51491    0.50272    1.000
    O7       O        0.71600    0.66670    0.60570    1.000
    N4       N        0.54190    0.89370    0.82590    1.000
    C31      C        0.59830    0.08310    0.92600    1.000
    O8       O        0.47330    0.60870    0.57310    1.000
    N5       N        0.49590    0.35060    0.81920    1.000
    C32      C        0.52220    0.15300    0.89780    1.000
    O9       O        0.63550    0.43800    0.59230    1.000
    N6       N        0.93920    0.33570    0.13200    1.000
    C33      C        0.58140    0.26940    0.92190    1.000
    O10      O        0.38900    0.38650    0.56130    1.000
    C34      C        0.71810    0.31500    0.97010    1.000
    O11      O        0.82040    0.47620    0.38683    1.000
    C35      C        0.79410    0.24350    0.99620    1.000
    O12      O        0.05320    0.46710    0.41471    1.000
    C36      C        0.73400    0.12790    0.97650    1.000
    C37      C        0.52790    0.96010    0.90330    1.000
    H28      H        0.42260    0.95160    0.90520    1.000
    H29      H        0.57250    0.92820    0.94140    1.000
    C38      C        0.49150    0.34550    0.89920    1.000
    H30      H        0.38850    0.31880    0.90260    1.000
    H31      H        0.52790    0.42220    0.93590    1.000
    C39      C        0.94440    0.29120    0.04730    1.000
    H32      H        0.00080    0.23180    0.04000    1.000
    H33      H        0.99690    0.35300    0.03150    1.000
    C40      C        0.37930    0.10370    0.84220    1.000
    H34      H        0.33780    0.16430    0.83150    1.000
    H35      H        0.39530    0.05430    0.79450    1.000
    H36      H        0.31120    0.06010    0.86430    1.000
    C41      C        0.78320    0.43930    0.99550    1.000
    H37      H        0.70860    0.48020    0.01160    1.000
    H38      H        0.86580    0.45830    0.03850    1.000
    H39      H        0.81760    0.46050    0.95300    1.000
    C42      C        0.81790    0.05460    0.00850    1.000
    H40      H        0.86610    0.09540    0.06180    1.000
    H41      H        0.75000    0.98550    0.00630    1.000
    H42      H        0.89200    0.03560    0.97810    1.000
    C43      C        0.42240    0.83310    0.77260    1.000
    H43      H        0.32780    0.83750    0.78300    1.000
    C44      C        0.43590    0.76460    0.70280    1.000
    H44      H        0.35100    0.72400    0.66470    1.000
    C45      C        0.57260    0.75540    0.68860    1.000
    C46      C        0.69630    0.82200    0.74300    1.000
    H45      H        0.79170    0.81980    0.73290    1.000
    C47      C        0.67840    0.89070    0.81120    1.000
    H46      H        0.76200    0.93640    0.84840    1.000
    C48      C        0.58870    0.67150    0.61620    1.000
    C49      C        0.37420    0.36010    0.77740    1.000
    H47      H        0.28610    0.35700    0.79670    1.000
    C50      C        0.37670    0.37440    0.70710    1.000
    H48      H        0.28990    0.37950    0.67700    1.000
    C51      C        0.50600    0.38120    0.67980    1.000
    C52      C        0.63040    0.37050    0.72430    1.000
    H49      H        0.72010    0.37410    0.70650    1.000
    C53      C        0.62270    0.35470    0.79320    1.000
    H50      H        0.70720    0.34660    0.82340    1.000
    C54      C        0.51210    0.40360    0.60420    1.000
    C55      C        0.81540    0.35650    0.15460    1.000
    H51      H        0.72850    0.34210    0.11750    1.000
    C56      C        0.81410    0.39830    0.23100    1.000
    H52      H        0.72710    0.41430    0.24710    1.000
    C57      C        0.94100    0.41720    0.28470    1.000
    C58      C        0.06720    0.39660    0.25950    1.000
    H53      H        0.15600    0.41170    0.29540    1.000
    C59      C        0.06350    0.35380    0.18180    1.000
    H54      H        0.14910    0.33750    0.16410    1.000
    C60      C        0.93900    0.45800    0.37010    1.000
