# CIF file generated by openbabel 3.1.0, see https://openbabel.org
data_I
_chemical_name_common 'image0'
_cell_length_a 9.5782
_cell_length_b 12.778
_cell_length_c 18.945
_cell_angle_alpha 107.49
_cell_angle_beta 99.21
_cell_angle_gamma 97.89
_space_group_name_H-M_alt 'P 1'
_space_group_name_Hall 'P 1'
loop_
    _symmetry_equiv_pos_as_xyz
    x,y,z
loop_
    _atom_site_label
    _atom_site_type_symbol
    _atom_site_fract_x
    _atom_site_fract_y
    _atom_site_fract_z
    _atom_site_occupancy
    C1       C        0.89490    0.40370    0.07520    1.000
    C2       C        0.96920    0.33290    0.10360    1.000
    C3       C        0.91270    0.21880    0.08000    1.000
    C4       C        0.77980    0.17430    0.03050    1.000
    C5       C        0.70210    0.24560    0.00320    1.000
    C6       C        0.76090    0.35940    0.02390    1.000
    C7       C        0.67740    0.43380    0.99020    1.000
    H1       H        0.66620    0.40810    0.93620    1.000
    H2       H        0.72960    0.50970    0.01070    1.000
    H3       H        0.58400    0.43000    0.00280    1.000
    C8       C        0.11330    0.38100    0.16150    1.000
    H4       H        0.10190    0.37300    0.20920    1.000
    H5       H        0.14250    0.45880    0.16790    1.000
    H6       H        0.18550    0.34110    0.14350    1.000
    C9       C        0.71960    0.05020    0.00660    1.000
    H7       H        0.78630    0.01520    0.03060    1.000
    H8       H        0.70530    0.01800    0.95260    1.000
    H9       H        0.62910    0.03860    0.02160    1.000
    C10      C        0.96380    0.52370    0.09640    1.000
    H10      H        0.92030    0.55370    0.05880    1.000
    H11      H        0.06530    0.52870    0.09510    1.000
    C11      C        0.06920    0.66260    0.22340    1.000
    H12      H        0.15900    0.65920    0.21110    1.000
    C12      C        0.06050    0.73610    0.29180    1.000
    H13      H        0.14310    0.78230    0.32550    1.000
    C13      C        0.92570    0.73960    0.30950    1.000
    C14      C        0.80640    0.66760    0.25940    1.000
    H14      H        0.71600    0.66890    0.27120    1.000
    C15      C        0.81920    0.59210    0.19060    1.000
    H15      H        0.73930    0.54130    0.15770    1.000
    C16      C        0.91180    0.82360    0.38080    1.000
    C17      C        0.55560    0.20000    0.95040    1.000
    H16      H        0.50700    0.13780    0.96230    1.000
    H17      H        0.49820    0.25780    0.95900    1.000
    C18      C        0.44010    0.14230    0.81650    1.000
    H18      H        0.35490    0.15410    0.83240    1.000
    C19      C        0.43940    0.10620    0.74120    1.000
    H19      H        0.35390    0.09430    0.70620    1.000
    C20      C        0.56480    0.08690    0.71610    1.000
    C21      C        0.68780    0.10420    0.77000    1.000
    H20      H        0.77300    0.09020    0.75480    1.000
    C22      C        0.68730    0.14190    0.84570    1.000
    H21      H        0.77180    0.15420    0.88150    1.000
    C23      C        0.56890    0.04770    0.63300    1.000
    C24      C        0.00120    0.14470    0.10530    1.000
    H22      H        0.10070    0.16950    0.10390    1.000
    H23      H        0.96890    0.06930    0.06960    1.000
    C25      C        0.86980    0.13850    0.20710    1.000
    H24      H        0.78880    0.14670    0.17640    1.000
    C26      C        0.85890    0.12420    0.27460    1.000
    H25      H        0.77100    0.12160    0.28960    1.000
    C27      C        0.98010    0.11350    0.32070    1.000
    C28      C        0.10870    0.11960    0.29650    1.000
    H26      H        0.19260    0.11650    0.32750    1.000
    C29      C        0.11310    0.13010    0.22680    1.000
    H27      H        0.19870    0.12960    0.20960    1.000
    C30      C        0.97750    0.09570    0.39590    1.000
    Eu1      Eu       0.23569    0.01276    0.50249    1.000
    N1       N        0.95060    0.59560    0.17390    1.000
    N2       N        0.56310    0.16110    0.86810    1.000
    N3       N        0.99560    0.14110    0.18400    1.000
    O1       O        0.78900    0.82990    0.39240    1.000
    O2       O        0.02640    0.88530    0.42380    1.000
    O3       O        0.45320    0.03450    0.58700    1.000
    O4       O        0.68560    0.03070    0.61570    1.000
    O5       O        0.85580    0.06460    0.40690    1.000
    O6       O        0.09640    0.10970    0.43800    1.000
    O7       O        0.40020    0.18390    0.50670    1.000
    H28      H        0.46200    0.24780    0.50840    1.000
    O8       O        0.29460    0.82680    0.47990    1.000
    H29      H        0.31700    0.75610    0.47130    1.000
    C31      C        0.10510    0.59630    0.92480    1.000
    C32      C        0.03080    0.66710    0.89640    1.000
    C33      C        0.08730    0.78120    0.92000    1.000
    C34      C        0.22020    0.82570    0.96950    1.000
    C35      C        0.29790    0.75440    0.99680    1.000
    C36      C        0.23910    0.64060    0.97610    1.000
    C37      C        0.32260    0.56620    0.00980    1.000
    H30      H        0.33380    0.59190    0.06380    1.000
    H31      H        0.27040    0.49030    0.98930    1.000
    H32      H        0.41600    0.57000    0.99720    1.000
    C38      C        0.88670    0.61900    0.83850    1.000
    H33      H        0.89810    0.62700    0.79080    1.000
    H34      H        0.85750    0.54120    0.83210    1.000
    H35      H        0.81450    0.65890    0.85650    1.000
    C39      C        0.28040    0.94980    0.99340    1.000
    H36      H        0.21370    0.98480    0.96940    1.000
    H37      H        0.29470    0.98200    0.04740    1.000
    H38      H        0.37090    0.96140    0.97840    1.000
    C40      C        0.03620    0.47630    0.90360    1.000
    H39      H        0.07970    0.44630    0.94120    1.000
    H40      H        0.93470    0.47130    0.90490    1.000
    C41      C        0.93080    0.33740    0.77660    1.000
    H41      H        0.84100    0.34080    0.78890    1.000
    C42      C        0.93950    0.26390    0.70820    1.000
    H42      H        0.85690    0.21770    0.67450    1.000
    C43      C        0.07430    0.26040    0.69050    1.000
    C44      C        0.19360    0.33240    0.74060    1.000
    H43      H        0.28400    0.33110    0.72880    1.000
    C45      C        0.18080    0.40790    0.80940    1.000
    H44      H        0.26070    0.45870    0.84230    1.000
    C46      C        0.08820    0.17640    0.61920    1.000
    C47      C        0.44440    0.80000    0.04960    1.000
    H45      H        0.49300    0.86220    0.03770    1.000
    H46      H        0.50180    0.74220    0.04100    1.000
    C48      C        0.55990    0.85770    0.18350    1.000
    H47      H        0.64510    0.84590    0.16760    1.000
    C49      C        0.56060    0.89380    0.25880    1.000
    H48      H        0.64610    0.90570    0.29380    1.000
    C50      C        0.43520    0.91310    0.28390    1.000
    C51      C        0.31220    0.89580    0.23000    1.000
    H49      H        0.22700    0.90980    0.24520    1.000
    C52      C        0.31270    0.85810    0.15430    1.000
    H50      H        0.22820    0.84580    0.11850    1.000
    C53      C        0.43110    0.95230    0.36700    1.000
    C54      C        0.99880    0.85530    0.89470    1.000
    H51      H        0.89930    0.83050    0.89610    1.000
    H52      H        0.03110    0.93070    0.93040    1.000
    C55      C        0.13020    0.86150    0.79290    1.000
    H53      H        0.21120    0.85330    0.82360    1.000
    C56      C        0.14110    0.87580    0.72540    1.000
    H54      H        0.22900    0.87840    0.71040    1.000
    C57      C        0.01990    0.88650    0.67930    1.000
    C58      C        0.89130    0.88040    0.70350    1.000
    H55      H        0.80740    0.88350    0.67250    1.000
    C59      C        0.88690    0.86990    0.77320    1.000
    H56      H        0.80130    0.87040    0.79040    1.000
    C60      C        0.02250    0.90430    0.60410    1.000
    Eu2      Eu       0.76431    0.98724    0.49751    1.000
    N4       N        0.04940    0.40440    0.82610    1.000
    N5       N        0.43690    0.83890    0.13190    1.000
    N6       N        0.00440    0.85890    0.81600    1.000
    O9       O        0.21100    0.17010    0.60760    1.000
    O10      O        0.97360    0.11470    0.57620    1.000
    O11      O        0.54680    0.96550    0.41300    1.000
    O12      O        0.31440    0.96930    0.38430    1.000
    O13      O        0.14420    0.93540    0.59310    1.000
    O14      O        0.90360    0.89030    0.56200    1.000
    O15      O        0.59980    0.81610    0.49330    1.000
    H57      H        0.53800    0.75220    0.49160    1.000
    O16      O        0.70540    0.17320    0.52010    1.000
    H58      H        0.68300    0.24390    0.52870    1.000
