# CIF file generated by openbabel 3.1.0, see https://openbabel.org
data_I
_chemical_name_common 'ZISFEO01_clean'
_cell_length_a 7.281
_cell_length_b 10.903
_cell_length_c 15.148
_cell_angle_alpha 90
_cell_angle_beta 90
_cell_angle_gamma 90
_space_group_name_H-M_alt 'P 1'
_space_group_name_Hall 'P 1'
loop_
    _symmetry_equiv_pos_as_xyz
    x,y,z
loop_
    _atom_site_label
    _atom_site_type_symbol
    _atom_site_fract_x
    _atom_site_fract_y
    _atom_site_fract_z
    _atom_site_occupancy
    Mn1      Mn       0.52668    0.09925    0.78153    1.000
    Mn2      Mn       0.97332    0.59925    0.28153    1.000
    Mn3      Mn       0.47332    0.59925    0.21847    1.000
    Mn4      Mn       0.02668    0.09925    0.71847    1.000
    H1       H        0.70200    0.49800    0.79970    1.000
    H2       H        0.90340    0.93770    0.38170    1.000
    H3       H        0.68960    0.85580    0.99970    1.000
    H4       H        0.15290    0.05230    0.98430    1.000
    H5       H        0.65290    0.05230    0.51570    1.000
    H6       H        0.66080    0.57800    0.88610    1.000
    H7       H        0.31040    0.35580    0.00030    1.000
    H8       H        0.44950    0.35060    0.69860    1.000
    H9       H        0.83920    0.07800    0.38610    1.000
    H10      H        0.84710    0.55230    0.01570    1.000
    H11      H        0.40340    0.93770    0.11830    1.000
    H12      H        0.79800    0.99800    0.29970    1.000
    H13      H        0.33920    0.07800    0.11390    1.000
    H14      H        0.29800    0.99800    0.20030    1.000
    H15      H        0.20200    0.49800    0.70030    1.000
    H16      H        0.81040    0.35580    0.49970    1.000
    H17      H        0.94950    0.35060    0.80140    1.000
    H18      H        0.05050    0.85060    0.19860    1.000
    H19      H        0.34710    0.55230    0.48430    1.000
    H20      H        0.18960    0.85580    0.50030    1.000
    H21      H        0.59660    0.43770    0.88170    1.000
    H22      H        0.09660    0.43770    0.61830    1.000
    H23      H        0.55050    0.85060    0.30140    1.000
    H24      H        0.16080    0.57800    0.61390    1.000
    C1       C        0.76430    0.25375    0.65515    1.000
    C2       C        0.35620    0.01549    0.60570    1.000
    C3       C        0.51570    0.87867    0.35839    1.000
    C4       C        0.57540    0.99795    0.48383    1.000
    C5       C        0.64570    0.33937    0.60623    1.000
    C6       C        0.14380    0.51549    0.10570    1.000
    C7       C        0.73570    0.75375    0.15515    1.000
    C8       C        0.91220    0.96183    0.97998    1.000
    C9       C        0.85620    0.01549    0.89430    1.000
    C10      C        0.35430    0.83937    0.39377    1.000
    C11      C        0.48430    0.37867    0.64161    1.000
    C12      C        0.14570    0.33937    0.89377    1.000
    C13      C        0.19760    0.38195    0.97512    1.000
    C14      C        0.58780    0.46183    0.47998    1.000
    C15      C        0.69760    0.38195    0.52488    1.000
    C16      C        0.37100    0.45727    0.59743    1.000
    C17      C        0.87100    0.45727    0.90257    1.000
    C18      C        0.64380    0.51549    0.39430    1.000
    C19      C        0.01570    0.87867    0.14161    1.000
    C20      C        0.85430    0.83937    0.10623    1.000
    C21      C        0.30760    0.99610    0.13574    1.000
    C22      C        0.30240    0.88195    0.47512    1.000
    C23      C        0.12900    0.95727    0.09743    1.000
    C24      C        0.69240    0.49610    0.86426    1.000
    C25      C        0.08780    0.46183    0.02002    1.000
    C26      C        0.80240    0.88195    0.02488    1.000
    C27      C        0.42460    0.49795    0.51617    1.000
    C28      C        0.41220    0.96183    0.52002    1.000
    C29      C        0.98430    0.37867    0.85839    1.000
    C30      C        0.23570    0.75375    0.34485    1.000
    C31      C        0.19240    0.49610    0.63574    1.000
    C32      C        0.07540    0.99795    0.01617    1.000
    C33      C        0.62900    0.95727    0.40257    1.000
    C34      C        0.26430    0.25375    0.84485    1.000
    C35      C        0.92460    0.49795    0.98383    1.000
    C36      C        0.80760    0.99610    0.36426    1.000
    O1       O        0.09206    0.71787    0.37833    1.000
    O2       O        0.78110    0.72301    0.23115    1.000
    O3       O        0.19217    0.01315    0.62474    1.000
    O4       O        0.40794    0.21787    0.87833    1.000
    O5       O        0.02059    0.56146    0.15017    1.000
    O6       O        0.80783    0.51315    0.37526    1.000
    O7       O        0.97941    0.06146    0.84983    1.000
    O8       O        0.59206    0.71787    0.12167    1.000
    O9       O        0.90794    0.21787    0.62167    1.000
    O10      O        0.71890    0.22301    0.73115    1.000
    O11      O        0.52059    0.56146    0.34983    1.000
    O12      O        0.47941    0.06146    0.65017    1.000
    O13      O        0.28110    0.72301    0.26885    1.000
    O14      O        0.69217    0.01315    0.87526    1.000
    O15      O        0.21890    0.22301    0.76885    1.000
    O16      O        0.30783    0.51315    0.12474    1.000
