# CIF file generated by openbabel 3.1.0, see https://openbabel.org
data_I
_chemical_name_common 'image0'
_cell_length_a 10.2454
_cell_length_b 33.542
_cell_length_c 13.4739
_cell_angle_alpha 90
_cell_angle_beta 90
_cell_angle_gamma 90
_space_group_name_H-M_alt 'P 1'
_space_group_name_Hall 'P 1'
loop_
    _symmetry_equiv_pos_as_xyz
    x,y,z
loop_
    _atom_site_label
    _atom_site_type_symbol
    _atom_site_fract_x
    _atom_site_fract_y
    _atom_site_fract_z
    _atom_site_occupancy
    C1       C        0.25900    0.20500    0.26780    1.000
    H1       H        0.28010    0.20140    0.19980    1.000
    C2       C        0.26510    0.22347    0.41500    1.000
    H2       H        0.29070    0.23600    0.47520    1.000
    C3       C        0.26010    0.14553    0.63200    1.000
    H3       H        0.28030    0.12880    0.57720    1.000
    C4       C        0.26950    0.17465    0.76800    1.000
    H4       H        0.29810    0.18330    0.83150    1.000
    C5       C        0.25570    0.04642    0.17770    1.000
    H5       H        0.27210    0.02330    0.13900    1.000
    C6       C        0.27140    0.09097    0.28440    1.000
    H6       H        0.30150    0.10670    0.33840    1.000
    C7       C        0.24520    0.08130    0.89830    1.000
    H7       H        0.22980    0.10880    0.91010    1.000
    C8       C        0.22770    0.01959    0.89930    1.000
    H8       H        0.19680    0.99330    0.91150    1.000
    N1       N        0.15640    0.18902    0.31020    1.000
    N2       N        0.16010    0.20083    0.40730    1.000
    N3       N        0.33170    0.22705    0.33080    1.000
    N4       N        0.15560    0.16898    0.63540    1.000
    N5       N        0.16130    0.18806    0.72490    1.000
    N6       N        0.33410    0.14787    0.71390    1.000
    N7       N        0.15550    0.06994    0.16320    1.000
    N8       N        0.16500    0.09931    0.23340    1.000
    N9       N        0.33310    0.05812    0.25260    1.000
    N10      N        0.34540    0.06806    0.84690    1.000
    N11      N        0.33450    0.02736    0.84800    1.000
    N12      N        0.16730    0.05247    0.93230    1.000
    N13      N        0.97680    0.09068    0.45170    1.000
    O1       O        0.02860    0.12345    0.42990    1.000
    O2       O        0.03500    0.05910    0.42930    1.000
    O3       O        0.87220    0.08830    0.49350    1.000
    C9       C        0.75900    0.70500    0.26780    1.000
    H9       H        0.78010    0.70140    0.19980    1.000
    C10      C        0.76510    0.72347    0.41500    1.000
    H10      H        0.79070    0.73600    0.47520    1.000
    C11      C        0.76010    0.64553    0.63200    1.000
    H11      H        0.78030    0.62880    0.57720    1.000
    C12      C        0.76950    0.67465    0.76800    1.000
    H12      H        0.79810    0.68330    0.83150    1.000
    C13      C        0.75570    0.54642    0.17770    1.000
    H13      H        0.77210    0.52330    0.13900    1.000
    C14      C        0.77140    0.59097    0.28440    1.000
    H14      H        0.80150    0.60670    0.33840    1.000
    C15      C        0.74520    0.58130    0.89830    1.000
    H15      H        0.72980    0.60880    0.91010    1.000
    C16      C        0.72770    0.51959    0.89930    1.000
    H16      H        0.69680    0.49330    0.91150    1.000
    N14      N        0.65640    0.68902    0.31020    1.000
    N15      N        0.66010    0.70083    0.40730    1.000
    N16      N        0.83170    0.72705    0.33080    1.000
    N17      N        0.65560    0.66898    0.63540    1.000
    N18      N        0.66130    0.68806    0.72490    1.000
    N19      N        0.83410    0.64787    0.71390    1.000
    N20      N        0.65550    0.56994    0.16320    1.000
    N21      N        0.66500    0.59931    0.23340    1.000
    N22      N        0.83310    0.55812    0.25260    1.000
    N23      N        0.84540    0.56806    0.84690    1.000
    N24      N        0.83450    0.52736    0.84800    1.000
    N25      N        0.66730    0.55247    0.93230    1.000
    N26      N        0.47680    0.59068    0.45170    1.000
    O4       O        0.52860    0.62345    0.42990    1.000
    O5       O        0.53500    0.55910    0.42930    1.000
    O6       O        0.37220    0.58830    0.49350    1.000
    C17      C        0.74100    0.79500    0.76780    1.000
    H17      H        0.71990    0.79860    0.69980    1.000
    C18      C        0.73490    0.77653    0.91500    1.000
    H18      H        0.70930    0.76400    0.97520    1.000
    C19      C        0.73990    0.85447    0.13200    1.000
    H19      H        0.71970    0.87120    0.07720    1.000
    C20      C        0.73050    0.82535    0.26800    1.000
    H20      H        0.70190    0.81670    0.33150    1.000
    C21      C        0.74430    0.95358    0.67770    1.000
    H21      H        0.72790    0.97670    0.63900    1.000
    C22      C        0.72860    0.90903    0.78440    1.000
    H22      H        0.69850    0.89330    0.83840    1.000
    C23      C        0.75480    0.91870    0.39830    1.000
    H23      H        0.77020    0.89120    0.41010    1.000
    C24      C        0.77230    0.98041    0.39930    1.000
    H24      H        0.80320    0.00670    0.41150    1.000
    N27      N        0.84360    0.81098    0.81020    1.000
    N28      N        0.83990    0.79917    0.90730    1.000
    N29      N        0.66830    0.77295    0.83080    1.000
    N30      N        0.84440    0.83102    0.13540    1.000
    N31      N        0.83870    0.81194    0.22490    1.000
    N32      N        0.66590    0.85213    0.21390    1.000
    N33      N        0.84450    0.93006    0.66320    1.000
    N34      N        0.83500    0.90069    0.73340    1.000
    N35      N        0.66690    0.94188    0.75260    1.000
    N36      N        0.65460    0.93194    0.34690    1.000
    N37      N        0.66550    0.97264    0.34800    1.000
    N38      N        0.83270    0.94753    0.43230    1.000
    N39      N        0.02320    0.90932    0.95170    1.000
    O7       O        0.97140    0.87655    0.92990    1.000
    O8       O        0.96500    0.94090    0.92930    1.000
    O9       O        0.12780    0.91170    0.99350    1.000
    C25      C        0.24100    0.29500    0.76780    1.000
    H25      H        0.21990    0.29860    0.69980    1.000
    C26      C        0.23490    0.27653    0.91500    1.000
    H26      H        0.20930    0.26400    0.97520    1.000
    C27      C        0.23990    0.35447    0.13200    1.000
    H27      H        0.21970    0.37120    0.07720    1.000
    C28      C        0.23050    0.32535    0.26800    1.000
    H28      H        0.20190    0.31670    0.33150    1.000
    C29      C        0.24430    0.45358    0.67770    1.000
    H29      H        0.22790    0.47670    0.63900    1.000
    C30      C        0.22860    0.40903    0.78440    1.000
    H30      H        0.19850    0.39330    0.83840    1.000
    C31      C        0.25480    0.41870    0.39830    1.000
    H31      H        0.27020    0.39120    0.41010    1.000
    C32      C        0.27230    0.48041    0.39930    1.000
    H32      H        0.30320    0.50670    0.41150    1.000
    N40      N        0.34360    0.31098    0.81020    1.000
    N41      N        0.33990    0.29917    0.90730    1.000
    N42      N        0.16830    0.27295    0.83080    1.000
    N43      N        0.34440    0.33102    0.13540    1.000
    N44      N        0.33870    0.31194    0.22490    1.000
    N45      N        0.16590    0.35213    0.21390    1.000
    N46      N        0.34450    0.43006    0.66320    1.000
    N47      N        0.33500    0.40069    0.73340    1.000
    N48      N        0.16690    0.44188    0.75260    1.000
    N49      N        0.15460    0.43194    0.34690    1.000
    N50      N        0.16550    0.47264    0.34800    1.000
    N51      N        0.33270    0.44753    0.43230    1.000
    N52      N        0.52320    0.40932    0.95170    1.000
    O10      O        0.47140    0.37655    0.92990    1.000
    O11      O        0.46500    0.44090    0.92930    1.000
    O12      O        0.62780    0.41170    0.99350    1.000
    C33      C        0.25900    0.79500    0.76780    1.000
    H33      H        0.28010    0.79860    0.69980    1.000
    C34      C        0.26510    0.77653    0.91500    1.000
    H34      H        0.29070    0.76400    0.97520    1.000
    C35      C        0.26010    0.85447    0.13200    1.000
    H35      H        0.28030    0.87120    0.07720    1.000
    C36      C        0.26950    0.82535    0.26800    1.000
    H36      H        0.29810    0.81670    0.33150    1.000
    C37      C        0.25570    0.95358    0.67770    1.000
    H37      H        0.27210    0.97670    0.63900    1.000
    C38      C        0.27140    0.90903    0.78440    1.000
    H38      H        0.30150    0.89330    0.83840    1.000
    C39      C        0.24520    0.91870    0.39830    1.000
    H39      H        0.22980    0.89120    0.41010    1.000
    C40      C        0.22770    0.98041    0.39930    1.000
    H40      H        0.19680    0.00670    0.41150    1.000
    N53      N        0.15640    0.81098    0.81020    1.000
    N54      N        0.16010    0.79917    0.90730    1.000
    N55      N        0.33170    0.77295    0.83080    1.000
    N56      N        0.15560    0.83102    0.13540    1.000
    N57      N        0.16130    0.81194    0.22490    1.000
    N58      N        0.33410    0.85213    0.21390    1.000
    N59      N        0.15550    0.93006    0.66320    1.000
    N60      N        0.16500    0.90069    0.73340    1.000
    N61      N        0.33310    0.94188    0.75260    1.000
    N62      N        0.34540    0.93194    0.34690    1.000
    N63      N        0.33450    0.97264    0.34800    1.000
    N64      N        0.16730    0.94753    0.43230    1.000
    N65      N        0.97680    0.90932    0.95170    1.000
    O13      O        0.02860    0.87655    0.92990    1.000
    O14      O        0.03500    0.94090    0.92930    1.000
    O15      O        0.87220    0.91170    0.99350    1.000
    C41      C        0.75900    0.29500    0.76780    1.000
    H41      H        0.78010    0.29860    0.69980    1.000
    C42      C        0.76510    0.27653    0.91500    1.000
    H42      H        0.79070    0.26400    0.97520    1.000
    C43      C        0.76010    0.35447    0.13200    1.000
    H43      H        0.78030    0.37120    0.07720    1.000
    C44      C        0.76950    0.32535    0.26800    1.000
    H44      H        0.79810    0.31670    0.33150    1.000
    C45      C        0.75570    0.45358    0.67770    1.000
    H45      H        0.77210    0.47670    0.63900    1.000
    C46      C        0.77140    0.40903    0.78440    1.000
    H46      H        0.80150    0.39330    0.83840    1.000
    C47      C        0.74520    0.41870    0.39830    1.000
    H47      H        0.72980    0.39120    0.41010    1.000
    C48      C        0.72770    0.48041    0.39930    1.000
    H48      H        0.69680    0.50670    0.41150    1.000
    N66      N        0.65640    0.31098    0.81020    1.000
    N67      N        0.66010    0.29917    0.90730    1.000
    N68      N        0.83170    0.27295    0.83080    1.000
    N69      N        0.65560    0.33102    0.13540    1.000
    N70      N        0.66130    0.31194    0.22490    1.000
    N71      N        0.83410    0.35213    0.21390    1.000
    N72      N        0.65550    0.43006    0.66320    1.000
    N73      N        0.66500    0.40069    0.73340    1.000
    N74      N        0.83310    0.44188    0.75260    1.000
    N75      N        0.84540    0.43194    0.34690    1.000
    N76      N        0.83450    0.47264    0.34800    1.000
    N77      N        0.66730    0.44753    0.43230    1.000
    N78      N        0.47680    0.40932    0.95170    1.000
    O16      O        0.52860    0.37655    0.92990    1.000
    O17      O        0.53500    0.44090    0.92930    1.000
    O18      O        0.37220    0.41170    0.99350    1.000
    C49      C        0.74100    0.20500    0.26780    1.000
    H49      H        0.71990    0.20140    0.19980    1.000
    C50      C        0.73490    0.22347    0.41500    1.000
    H50      H        0.70930    0.23600    0.47520    1.000
    C51      C        0.73990    0.14553    0.63200    1.000
    H51      H        0.71970    0.12880    0.57720    1.000
    C52      C        0.73050    0.17465    0.76800    1.000
    H52      H        0.70190    0.18330    0.83150    1.000
    C53      C        0.74430    0.04642    0.17770    1.000
    H53      H        0.72790    0.02330    0.13900    1.000
    C54      C        0.72860    0.09097    0.28440    1.000
    H54      H        0.69850    0.10670    0.33840    1.000
    C55      C        0.75480    0.08130    0.89830    1.000
    H55      H        0.77020    0.10880    0.91010    1.000
    C56      C        0.77230    0.01959    0.89930    1.000
    H56      H        0.80320    0.99330    0.91150    1.000
    N79      N        0.84360    0.18902    0.31020    1.000
    N80      N        0.83990    0.20083    0.40730    1.000
    N81      N        0.66830    0.22705    0.33080    1.000
    N82      N        0.84440    0.16898    0.63540    1.000
    N83      N        0.83870    0.18806    0.72490    1.000
    N84      N        0.66590    0.14787    0.71390    1.000
    N85      N        0.84450    0.06994    0.16320    1.000
    N86      N        0.83500    0.09931    0.23340    1.000
    N87      N        0.66690    0.05812    0.25260    1.000
    N88      N        0.65460    0.06806    0.84690    1.000
    N89      N        0.66550    0.02736    0.84800    1.000
    N90      N        0.83270    0.05247    0.93230    1.000
    N91      N        0.02320    0.09068    0.45170    1.000
    O19      O        0.97140    0.12345    0.42990    1.000
    O20      O        0.96500    0.05910    0.42930    1.000
    O21      O        0.12780    0.08830    0.49350    1.000
    C57      C        0.24100    0.70500    0.26780    1.000
    H57      H        0.21990    0.70140    0.19980    1.000
    C58      C        0.23490    0.72347    0.41500    1.000
    H58      H        0.20930    0.73600    0.47520    1.000
    C59      C        0.23990    0.64553    0.63200    1.000
    H59      H        0.21970    0.62880    0.57720    1.000
    C60      C        0.23050    0.67465    0.76800    1.000
    H60      H        0.20190    0.68330    0.83150    1.000
    C61      C        0.24430    0.54642    0.17770    1.000
    H61      H        0.22790    0.52330    0.13900    1.000
    C62      C        0.22860    0.59097    0.28440    1.000
    H62      H        0.19850    0.60670    0.33840    1.000
    C63      C        0.25480    0.58130    0.89830    1.000
    H63      H        0.27020    0.60880    0.91010    1.000
    C64      C        0.27230    0.51959    0.89930    1.000
    H64      H        0.30320    0.49330    0.91150    1.000
    N92      N        0.34360    0.68902    0.31020    1.000
    N93      N        0.33990    0.70083    0.40730    1.000
    N94      N        0.16830    0.72705    0.33080    1.000
    N95      N        0.34440    0.66898    0.63540    1.000
    N96      N        0.33870    0.68806    0.72490    1.000
    N97      N        0.16590    0.64787    0.71390    1.000
    N98      N        0.34450    0.56994    0.16320    1.000
    N99      N        0.33500    0.59931    0.23340    1.000
    N100     N        0.16690    0.55812    0.25260    1.000
    N101     N        0.15460    0.56806    0.84690    1.000
    N102     N        0.16550    0.52736    0.84800    1.000
    N103     N        0.33270    0.55247    0.93230    1.000
    N104     N        0.52320    0.59068    0.45170    1.000
    O22      O        0.47140    0.62345    0.42990    1.000
    O23      O        0.46500    0.55910    0.42930    1.000
    O24      O        0.62780    0.58830    0.49350    1.000
    Cd1      Cd       0.00000    0.06375    0.04167    1.000
    Cd2      Cd       0.00000    0.14543    0.25019    1.000
    Cd3      Cd       0.00000    0.18427    0.51934    1.000
    Cd4      Cd       0.00000    0.23077    0.78903    1.000
    C65      C        0.00000    0.15322    0.92680    1.000
    H65      H        0.00000    0.14010    0.86440    1.000
    C66      C        0.00000    0.19756    0.03530    1.000
    H66      H        0.00000    0.22280    0.06710    1.000
    N105     N        0.00000    0.13417    0.01170    1.000
    N106     N        0.00000    0.16310    0.08450    1.000
    N107     N        0.00000    0.19301    0.93640    1.000
    Cd5      Cd       0.50000    0.56375    0.04167    1.000
    Cd6      Cd       0.50000    0.64543    0.25019    1.000
    Cd7      Cd       0.50000    0.68427    0.51934    1.000
    Cd8      Cd       0.50000    0.73077    0.78903    1.000
    C67      C        0.50000    0.65322    0.92680    1.000
    H67      H        0.50000    0.64010    0.86440    1.000
    C68      C        0.50000    0.69756    0.03530    1.000
    H68      H        0.50000    0.72280    0.06710    1.000
    N108     N        0.50000    0.63417    0.01170    1.000
    N109     N        0.50000    0.66310    0.08450    1.000
    N110     N        0.50000    0.69301    0.93640    1.000
    Cd9      Cd       0.00000    0.93625    0.54167    1.000
    Cd10     Cd       0.00000    0.85457    0.75019    1.000
    Cd11     Cd       0.00000    0.81573    0.01934    1.000
    Cd12     Cd       0.00000    0.76923    0.28903    1.000
    C69      C        0.00000    0.84678    0.42680    1.000
    H69      H        0.00000    0.85990    0.36440    1.000
    C70      C        0.00000    0.80244    0.53530    1.000
    H70      H        0.00000    0.77720    0.56710    1.000
    N111     N        0.00000    0.86583    0.51170    1.000
    N112     N        0.00000    0.83690    0.58450    1.000
    N113     N        0.00000    0.80699    0.43640    1.000
    Cd13     Cd       0.50000    0.43625    0.54167    1.000
    Cd14     Cd       0.50000    0.35457    0.75019    1.000
    Cd15     Cd       0.50000    0.31573    0.01934    1.000
    Cd16     Cd       0.50000    0.26923    0.28903    1.000
    C71      C        0.50000    0.34678    0.42680    1.000
    H71      H        0.50000    0.35990    0.36440    1.000
    C72      C        0.50000    0.30244    0.53530    1.000
    H72      H        0.50000    0.27720    0.56710    1.000
    N114     N        0.50000    0.36583    0.51170    1.000
    N115     N        0.50000    0.33690    0.58450    1.000
    N116     N        0.50000    0.30699    0.43640    1.000
    Cd17     Cd       0.50000    0.01625    0.30399    1.000
    Cd18     Cd       0.50000    0.10457    0.76184    1.000
    C73      C        0.50000    0.93230    0.03160    1.000
    H73      H        0.50000    0.90630    0.00310    1.000
    C74      C        0.50000    0.99343    0.04770    1.000
    H74      H        0.50000    0.02110    0.03250    1.000
    N117     N        0.50000    0.93831    0.12870    1.000
    N118     N        0.50000    0.97966    0.13980    1.000
    N119     N        0.50000    0.96502    0.97750    1.000
    Cd19     Cd       0.00000    0.51625    0.30399    1.000
    Cd20     Cd       0.00000    0.60457    0.76184    1.000
    C75      C        0.00000    0.43230    0.03160    1.000
    H75      H        0.00000    0.40630    0.00310    1.000
    C76      C        0.00000    0.49343    0.04770    1.000
    H76      H        0.00000    0.52110    0.03250    1.000
    N120     N        0.00000    0.43831    0.12870    1.000
    N121     N        0.00000    0.47966    0.13980    1.000
    N122     N        0.00000    0.46502    0.97750    1.000
    Cd21     Cd       0.50000    0.98375    0.80399    1.000
    Cd22     Cd       0.50000    0.89543    0.26184    1.000
    C77      C        0.50000    0.06770    0.53160    1.000
    H77      H        0.50000    0.09370    0.50310    1.000
    C78      C        0.50000    0.00657    0.54770    1.000
    H78      H        0.50000    0.97890    0.53250    1.000
    N123     N        0.50000    0.06169    0.62870    1.000
    N124     N        0.50000    0.02034    0.63980    1.000
    N125     N        0.50000    0.03498    0.47750    1.000
    Cd23     Cd       0.00000    0.48375    0.80399    1.000
    Cd24     Cd       0.00000    0.39543    0.26184    1.000
    C79      C        0.00000    0.56770    0.53160    1.000
    H79      H        0.00000    0.59370    0.50310    1.000
    C80      C        0.00000    0.50657    0.54770    1.000
    H80      H        0.00000    0.47890    0.53250    1.000
    N126     N        0.00000    0.56169    0.62870    1.000
    N127     N        0.00000    0.52034    0.63980    1.000
    N128     N        0.00000    0.53498    0.47750    1.000
