# CIF file generated by openbabel 3.1.0, see https://openbabel.org
data_I
_chemical_name_common 'image0'
_cell_length_a 18.698
_cell_length_b 18.698
_cell_length_c 9.395
_cell_angle_alpha 90
_cell_angle_beta 90
_cell_angle_gamma 90
_space_group_name_H-M_alt 'P 1'
_space_group_name_Hall 'P 1'
loop_
    _symmetry_equiv_pos_as_xyz
    x,y,z
loop_
    _atom_site_label
    _atom_site_type_symbol
    _atom_site_fract_x
    _atom_site_fract_y
    _atom_site_fract_z
    _atom_site_occupancy
    P1       P        0.56608    0.33397    0.09110    1.000
    P2       P        0.45084    0.16591    0.83930    1.000
    P3       P        0.56561    0.05626    0.33650    1.000
    Al1      Al       0.45454    0.33454    0.84120    1.000
    Al2      Al       0.56429    0.44771    0.33430    1.000
    Al3      Al       0.56381    0.16629    0.08440    1.000
    O1       O        0.48580    0.15820    0.98780    1.000
    O2       O        0.37760    0.12730    0.84110    1.000
    O3       O        0.43810    0.24570    0.80500    1.000
    O4       O        0.49670    0.34270    0.00390    1.000
    O5       O        0.55690    0.37100    0.23570    1.000
    O6       O        0.63060    0.36610    0.01060    1.000
    O7       O        0.58290    0.25450    0.11980    1.000
    O8       O        0.50000    0.13460    0.72320    1.000
    O9       O        0.49480    0.01510    0.32320    1.000
    O10      O        0.57830    0.07930    0.49160    1.000
    O11      O        0.62910    0.01050    0.28730    1.000
    O12      O        0.55940    0.12490    0.24660    1.000
    P4       P        0.93392    0.16603    0.09110    1.000
    P5       P        0.04916    0.33409    0.83930    1.000
    P6       P        0.93439    0.44374    0.33650    1.000
    Al4      Al       0.04546    0.16546    0.84120    1.000
    Al5      Al       0.93571    0.05229    0.33430    1.000
    Al6      Al       0.93619    0.33371    0.08440    1.000
    O13      O        0.01420    0.34180    0.98780    1.000
    O14      O        0.12240    0.37270    0.84110    1.000
    O15      O        0.06190    0.25430    0.80500    1.000
    O16      O        0.00330    0.15730    0.00390    1.000
    O17      O        0.94310    0.12900    0.23570    1.000
    O18      O        0.86940    0.13390    0.01060    1.000
    O19      O        0.91710    0.24550    0.11980    1.000
    O20      O        0.00000    0.36540    0.72320    1.000
    O21      O        0.00520    0.48490    0.32320    1.000
    O22      O        0.92170    0.42070    0.49160    1.000
    O23      O        0.87090    0.48950    0.28730    1.000
    O24      O        0.94060    0.37510    0.24660    1.000
    P7       P        0.16603    0.56608    0.09110    1.000
    P8       P        0.33409    0.45084    0.83930    1.000
    P9       P        0.44374    0.56561    0.33650    1.000
    Al7      Al       0.16546    0.45454    0.84120    1.000
    Al8      Al       0.05229    0.56429    0.33430    1.000
    Al9      Al       0.33371    0.56381    0.08440    1.000
    O25      O        0.34180    0.48580    0.98780    1.000
    O26      O        0.37270    0.37760    0.84110    1.000
    O27      O        0.25430    0.43810    0.80500    1.000
    O28      O        0.15730    0.49670    0.00390    1.000
    O29      O        0.12900    0.55690    0.23570    1.000
    O30      O        0.13390    0.63060    0.01060    1.000
    O31      O        0.24550    0.58290    0.11980    1.000
    O32      O        0.36540    0.50000    0.72320    1.000
    O33      O        0.48490    0.49480    0.32320    1.000
    O34      O        0.42070    0.57830    0.49160    1.000
    O35      O        0.48950    0.62910    0.28730    1.000
    O36      O        0.37510    0.55940    0.24660    1.000
    P10      P        0.33397    0.93392    0.09110    1.000
    P11      P        0.16591    0.04916    0.83930    1.000
    P12      P        0.05626    0.93439    0.33650    1.000
    Al10     Al       0.33454    0.04546    0.84120    1.000
    Al11     Al       0.44771    0.93571    0.33430    1.000
    Al12     Al       0.16629    0.93619    0.08440    1.000
    O37      O        0.15820    0.01420    0.98780    1.000
    O38      O        0.12730    0.12240    0.84110    1.000
    O39      O        0.24570    0.06190    0.80500    1.000
    O40      O        0.34270    0.00330    0.00390    1.000
    O41      O        0.37100    0.94310    0.23570    1.000
    O42      O        0.36610    0.86940    0.01060    1.000
    O43      O        0.25450    0.91710    0.11980    1.000
    O44      O        0.13460    0.00000    0.72320    1.000
    O45      O        0.01510    0.00520    0.32320    1.000
    O46      O        0.07930    0.92170    0.49160    1.000
    O47      O        0.01050    0.87090    0.28730    1.000
    O48      O        0.12490    0.94060    0.24660    1.000
    P13      P        0.43392    0.66603    0.90890    1.000
    P14      P        0.54916    0.83409    0.16070    1.000
    P15      P        0.43439    0.94374    0.66350    1.000
    Al13     Al       0.54546    0.66546    0.15880    1.000
    Al14     Al       0.43571    0.55229    0.66570    1.000
    Al15     Al       0.43619    0.83371    0.91560    1.000
    O49      O        0.51420    0.84180    0.01220    1.000
    O50      O        0.62240    0.87270    0.15890    1.000
    O51      O        0.56190    0.75430    0.19500    1.000
    O52      O        0.50330    0.65730    0.99610    1.000
    O53      O        0.44310    0.62900    0.76430    1.000
    O54      O        0.36940    0.63390    0.98940    1.000
    O55      O        0.41710    0.74550    0.88020    1.000
    O56      O        0.50000    0.86540    0.27680    1.000
    O57      O        0.50520    0.98490    0.67680    1.000
    O58      O        0.42170    0.92070    0.50840    1.000
    O59      O        0.37090    0.98950    0.71270    1.000
    O60      O        0.44060    0.87510    0.75340    1.000
    P16      P        0.06608    0.83397    0.90890    1.000
    P17      P        0.95084    0.66591    0.16070    1.000
    P18      P        0.06561    0.55626    0.66350    1.000
    Al16     Al       0.95454    0.83454    0.15880    1.000
    Al17     Al       0.06429    0.94771    0.66570    1.000
    Al18     Al       0.06381    0.66629    0.91560    1.000
    O61      O        0.98580    0.65820    0.01220    1.000
    O62      O        0.87760    0.62730    0.15890    1.000
    O63      O        0.93810    0.74570    0.19500    1.000
    O64      O        0.99670    0.84270    0.99610    1.000
    O65      O        0.05690    0.87100    0.76430    1.000
    O66      O        0.13060    0.86610    0.98940    1.000
    O67      O        0.08290    0.75450    0.88020    1.000
    O68      O        0.00000    0.63460    0.27680    1.000
    O69      O        0.99480    0.51510    0.67680    1.000
    O70      O        0.07830    0.57930    0.50840    1.000
    O71      O        0.12910    0.51050    0.71270    1.000
    O72      O        0.05940    0.62490    0.75340    1.000
    P19      P        0.83397    0.43392    0.90890    1.000
    P20      P        0.66591    0.54916    0.16070    1.000
    P21      P        0.55626    0.43439    0.66350    1.000
    Al19     Al       0.83454    0.54546    0.15880    1.000
    Al20     Al       0.94771    0.43571    0.66570    1.000
    Al21     Al       0.66629    0.43619    0.91560    1.000
    O73      O        0.65820    0.51420    0.01220    1.000
    O74      O        0.62730    0.62240    0.15890    1.000
    O75      O        0.74570    0.56190    0.19500    1.000
    O76      O        0.84270    0.50330    0.99610    1.000
    O77      O        0.87100    0.44310    0.76430    1.000
    O78      O        0.86610    0.36940    0.98940    1.000
    O79      O        0.75450    0.41710    0.88020    1.000
    O80      O        0.63460    0.50000    0.27680    1.000
    O81      O        0.51510    0.50520    0.67680    1.000
    O82      O        0.57930    0.42170    0.50840    1.000
    O83      O        0.51050    0.37090    0.71270    1.000
    O84      O        0.62490    0.44060    0.75340    1.000
    P22      P        0.66603    0.06608    0.90890    1.000
    P23      P        0.83409    0.95084    0.16070    1.000
    P24      P        0.94374    0.06561    0.66350    1.000
    Al22     Al       0.66546    0.95454    0.15880    1.000
    Al23     Al       0.55229    0.06429    0.66570    1.000
    Al24     Al       0.83371    0.06381    0.91560    1.000
    O85      O        0.84180    0.98580    0.01220    1.000
    O86      O        0.87270    0.87760    0.15890    1.000
    O87      O        0.75430    0.93810    0.19500    1.000
    O88      O        0.65730    0.99670    0.99610    1.000
    O89      O        0.62900    0.05690    0.76430    1.000
    O90      O        0.63390    0.13060    0.98940    1.000
    O91      O        0.74550    0.08290    0.88020    1.000
    O92      O        0.86540    0.00000    0.27680    1.000
    O93      O        0.98490    0.99480    0.67680    1.000
    O94      O        0.92070    0.07830    0.50840    1.000
    O95      O        0.98950    0.12910    0.71270    1.000
    O96      O        0.87510    0.05940    0.75340    1.000
