# CIF file generated by openbabel 3.1.0, see https://openbabel.org
data_I
_chemical_name_common 'image0'
_cell_length_a 6.6375
_cell_length_b 18.2953
_cell_length_c 8.4058
_cell_angle_alpha 90
_cell_angle_beta 90
_cell_angle_gamma 90
_space_group_name_H-M_alt 'P 1'
_space_group_name_Hall 'P 1'
loop_
    _symmetry_equiv_pos_as_xyz
    x,y,z
loop_
    _atom_site_label
    _atom_site_type_symbol
    _atom_site_fract_x
    _atom_site_fract_y
    _atom_site_fract_z
    _atom_site_occupancy
    O1       O        0.01470    0.05000    0.42920    1.000
    O2       O        0.33520    0.09485    0.22750    1.000
    O3       O        0.17950    0.24207    0.15310    1.000
    O4       O        0.32610    0.31653    0.98090    1.000
    C1       C        0.26450    0.25630    0.02380    1.000
    H1       H        0.28290    0.21770    0.95350    1.000
    O5       O        0.51470    0.55000    0.42920    1.000
    O6       O        0.83520    0.59485    0.22750    1.000
    O7       O        0.67950    0.74207    0.15310    1.000
    O8       O        0.82610    0.81653    0.98090    1.000
    C2       C        0.76450    0.75630    0.02380    1.000
    H2       H        0.78290    0.71770    0.95350    1.000
    O9       O        0.98530    0.95000    0.92920    1.000
    O10      O        0.66480    0.90515    0.72750    1.000
    O11      O        0.82050    0.75793    0.65310    1.000
    O12      O        0.67390    0.68347    0.48090    1.000
    C3       C        0.73550    0.74370    0.52380    1.000
    H3       H        0.71710    0.78230    0.45350    1.000
    O13      O        0.48530    0.45000    0.92920    1.000
    O14      O        0.16480    0.40515    0.72750    1.000
    O15      O        0.32050    0.25793    0.65310    1.000
    O16      O        0.17390    0.18347    0.48090    1.000
    C4       C        0.23550    0.24370    0.52380    1.000
    H4       H        0.21710    0.28230    0.45350    1.000
    O17      O        0.98530    0.05000    0.07080    1.000
    O18      O        0.66480    0.09485    0.27250    1.000
    O19      O        0.82050    0.24207    0.34690    1.000
    O20      O        0.67390    0.31653    0.51910    1.000
    C5       C        0.73550    0.25630    0.47620    1.000
    H5       H        0.71710    0.21770    0.54650    1.000
    O21      O        0.48530    0.55000    0.07080    1.000
    O22      O        0.16480    0.59485    0.27250    1.000
    O23      O        0.32050    0.74207    0.34690    1.000
    O24      O        0.17390    0.81653    0.51910    1.000
    C6       C        0.23550    0.75630    0.47620    1.000
    H6       H        0.21710    0.71770    0.54650    1.000
    O25      O        0.01470    0.95000    0.57080    1.000
    O26      O        0.33520    0.90515    0.77250    1.000
    O27      O        0.17950    0.75793    0.84690    1.000
    O28      O        0.32610    0.68347    0.01910    1.000
    C7       C        0.26450    0.74370    0.97620    1.000
    H7       H        0.28290    0.78230    0.04650    1.000
    O29      O        0.51470    0.45000    0.57080    1.000
    O30      O        0.83520    0.40515    0.77250    1.000
    O31      O        0.67950    0.25793    0.84690    1.000
    O32      O        0.82610    0.18347    0.01910    1.000
    C8       C        0.76450    0.24370    0.97620    1.000
    H8       H        0.78290    0.28230    0.04650    1.000
    Tm1      Tm       0.00000    0.14281    0.25000    1.000
    Tm2      Tm       0.50000    0.64281    0.25000    1.000
    Tm3      Tm       0.00000    0.85719    0.75000    1.000
    Tm4      Tm       0.50000    0.35719    0.75000    1.000
    C9       C        0.50000    0.12600    0.25000    1.000
    H9       H        0.50000    0.17690    0.25000    1.000
    C10      C        0.00000    0.62600    0.25000    1.000
    H10      H        0.00000    0.67690    0.25000    1.000
    C11      C        0.50000    0.87400    0.75000    1.000
    H11      H        0.50000    0.82310    0.75000    1.000
    C12      C        0.00000    0.37400    0.75000    1.000
    H12      H        0.00000    0.32310    0.75000    1.000
    C13      C        0.92430    0.00000    0.50000    1.000
    H13      H        0.78420    0.00000    0.50000    1.000
    C14      C        0.42430    0.50000    0.50000    1.000
    H14      H        0.28420    0.50000    0.50000    1.000
    C15      C        0.07570    0.00000    0.00000    1.000
    H15      H        0.21580    0.00000    0.00000    1.000
    C16      C        0.57570    0.50000    0.00000    1.000
    H16      H        0.71580    0.50000    0.00000    1.000
