# CIF file generated by openbabel 3.1.0, see https://openbabel.org
data_I
_chemical_name_common 'image0'
_cell_length_a 26.292
_cell_length_b 26.292
_cell_length_c 26.292
_cell_angle_alpha 90
_cell_angle_beta 90
_cell_angle_gamma 90
_space_group_name_H-M_alt 'P 1'
_space_group_name_Hall 'P 1'
loop_
    _symmetry_equiv_pos_as_xyz
    x,y,z
loop_
    _atom_site_label
    _atom_site_type_symbol
    _atom_site_fract_x
    _atom_site_fract_y
    _atom_site_fract_z
    _atom_site_occupancy
    Li1      Li       0.74464    0.60960    0.89129    1.000
    B1       B        0.74894    0.59999    0.10198    1.000
    N1       N        0.75752    0.62182    0.04809    1.000
    N2       N        0.75276    0.63373    0.96430    1.000
    C1       C        0.73868    0.60470    0.00334    1.000
    H1       H        0.71780    0.57540    0.00020    1.000
    C2       C        0.78211    0.67209    0.98536    1.000
    C3       C        0.78459    0.66533    0.03631    1.000
    H2       H        0.80190    0.68670    0.05980    1.000
    C4       C        0.80416    0.71301    0.95410    1.000
    H3       H        0.77740    0.72850    0.93330    1.000
    H4       H        0.83050    0.69880    0.93190    1.000
    H5       H        0.81920    0.73890    0.97630    1.000
    N3       N        0.72468    0.54629    0.09824    1.000
    N4       N        0.71594    0.46214    0.10300    1.000
    C5       C        0.74646    0.50132    0.10859    1.000
    H6       H        0.78090    0.49810    0.11900    1.000
    C6       C        0.67014    0.48341    0.08795    1.000
    C7       C        0.67547    0.53456    0.08558    1.000
    H7       H        0.64960    0.55820    0.07670    1.000
    C8       C        0.62489    0.45026    0.07747    1.000
    H8       H        0.63180    0.42880    0.04780    1.000
    H9       H        0.59510    0.47160    0.07070    1.000
    H10      H        0.61820    0.42870    0.10710    1.000
    N5       N        0.80094    0.59650    0.12766    1.000
    N6       N        0.86293    0.60121    0.18538    1.000
    C9       C        0.81418    0.60941    0.17475    1.000
    H11      H        0.79090    0.62330    0.19860    1.000
    C10      C        0.88368    0.58142    0.14106    1.000
    C11      C        0.84530    0.57793    0.10542    1.000
    H12      H        0.84860    0.56520    0.07180    1.000
    C12      C        0.93819    0.56694    0.13529    1.000
    H13      H        0.95890    0.59770    0.13190    1.000
    H14      H        0.94230    0.54580    0.10490    1.000
    H15      H        0.94920    0.54780    0.16530    1.000
    N7       N        0.71222    0.63427    0.13078    1.000
    N8       N        0.65709    0.69725    0.14561    1.000
    C13      C        0.69029    0.67719    0.11415    1.000
    H16      H        0.69810    0.69190    0.08210    1.000
    C14      C        0.65661    0.66457    0.18676    1.000
    C15      C        0.68908    0.62611    0.17827    1.000
    H17      H        0.69530    0.59830    0.20050    1.000
    C16      C        0.62427    0.67411    0.23093    1.000
    H18      H        0.62770    0.64600    0.25510    1.000
    H19      H        0.58870    0.67680    0.22000    1.000
    H20      H        0.63470    0.70590    0.24730    1.000
    Li2      Li       0.25536    0.39040    0.89129    1.000
    B2       B        0.25106    0.40001    0.10198    1.000
    N9       N        0.24248    0.37818    0.04809    1.000
    N10      N        0.24724    0.36627    0.96430    1.000
    C17      C        0.26132    0.39530    0.00334    1.000
    H21      H        0.28220    0.42460    0.00020    1.000
    C18      C        0.21789    0.32791    0.98536    1.000
    C19      C        0.21541    0.33467    0.03631    1.000
    H22      H        0.19810    0.31330    0.05980    1.000
    C20      C        0.19584    0.28699    0.95410    1.000
    H23      H        0.22260    0.27150    0.93330    1.000
    H24      H        0.16950    0.30120    0.93190    1.000
    H25      H        0.18080    0.26110    0.97630    1.000
    N11      N        0.27532    0.45371    0.09824    1.000
    N12      N        0.28406    0.53786    0.10300    1.000
    C21      C        0.25354    0.49868    0.10859    1.000
    H26      H        0.21910    0.50190    0.11900    1.000
    C22      C        0.32986    0.51659    0.08795    1.000
    C23      C        0.32453    0.46544    0.08558    1.000
    H27      H        0.35040    0.44180    0.07670    1.000
    C24      C        0.37511    0.54974    0.07747    1.000
    H28      H        0.36820    0.57120    0.04780    1.000
    H29      H        0.40490    0.52840    0.07070    1.000
    H30      H        0.38180    0.57130    0.10710    1.000
    N13      N        0.19906    0.40350    0.12766    1.000
    N14      N        0.13707    0.39879    0.18538    1.000
    C25      C        0.18582    0.39059    0.17475    1.000
    H31      H        0.20910    0.37670    0.19860    1.000
    C26      C        0.11632    0.41858    0.14106    1.000
    C27      C        0.15470    0.42207    0.10542    1.000
    H32      H        0.15140    0.43480    0.07180    1.000
    C28      C        0.06181    0.43306    0.13529    1.000
    H33      H        0.04110    0.40230    0.13190    1.000
    H34      H        0.05770    0.45420    0.10490    1.000
    H35      H        0.05080    0.45220    0.16530    1.000
    N15      N        0.28778    0.36573    0.13078    1.000
    N16      N        0.34291    0.30275    0.14561    1.000
    C29      C        0.30971    0.32281    0.11415    1.000
    H36      H        0.30190    0.30810    0.08210    1.000
    C30      C        0.34339    0.33543    0.18676    1.000
    C31      C        0.31092    0.37389    0.17827    1.000
    H37      H        0.30470    0.40170    0.20050    1.000
    C32      C        0.37573    0.32589    0.23093    1.000
    H38      H        0.37230    0.35400    0.25510    1.000
    H39      H        0.41130    0.32320    0.22000    1.000
    H40      H        0.36530    0.29410    0.24730    1.000
    Li3      Li       0.25536    0.60960    0.10871    1.000
    B3       B        0.25106    0.59999    0.89802    1.000
    N17      N        0.24248    0.62182    0.95191    1.000
    N18      N        0.24724    0.63373    0.03570    1.000
    C33      C        0.26132    0.60470    0.99666    1.000
    H41      H        0.28220    0.57540    0.99980    1.000
    C34      C        0.21789    0.67209    0.01464    1.000
    C35      C        0.21541    0.66533    0.96369    1.000
    H42      H        0.19810    0.68670    0.94020    1.000
    C36      C        0.19584    0.71301    0.04590    1.000
    H43      H        0.22260    0.72850    0.06670    1.000
    H44      H        0.16950    0.69880    0.06810    1.000
    H45      H        0.18080    0.73890    0.02370    1.000
    N19      N        0.27532    0.54629    0.90176    1.000
    N20      N        0.28406    0.46214    0.89700    1.000
    C37      C        0.25354    0.50132    0.89141    1.000
    H46      H        0.21910    0.49810    0.88100    1.000
    C38      C        0.32986    0.48341    0.91205    1.000
    C39      C        0.32453    0.53456    0.91442    1.000
    H47      H        0.35040    0.55820    0.92330    1.000
    C40      C        0.37511    0.45026    0.92253    1.000
    H48      H        0.36820    0.42880    0.95220    1.000
    H49      H        0.40490    0.47160    0.92930    1.000
    H50      H        0.38180    0.42870    0.89290    1.000
    N21      N        0.19906    0.59650    0.87234    1.000
    N22      N        0.13707    0.60121    0.81462    1.000
    C41      C        0.18582    0.60941    0.82525    1.000
    H51      H        0.20910    0.62330    0.80140    1.000
    C42      C        0.11632    0.58142    0.85894    1.000
    C43      C        0.15470    0.57793    0.89458    1.000
    H52      H        0.15140    0.56520    0.92820    1.000
    C44      C        0.06181    0.56694    0.86471    1.000
    H53      H        0.04110    0.59770    0.86810    1.000
    H54      H        0.05770    0.54580    0.89510    1.000
    H55      H        0.05080    0.54780    0.83470    1.000
    N23      N        0.28778    0.63427    0.86922    1.000
    N24      N        0.34291    0.69725    0.85439    1.000
    C45      C        0.30971    0.67719    0.88585    1.000
    H56      H        0.30190    0.69190    0.91790    1.000
    C46      C        0.34339    0.66457    0.81324    1.000
    C47      C        0.31092    0.62611    0.82173    1.000
    H57      H        0.30470    0.59830    0.79950    1.000
    C48      C        0.37573    0.67411    0.76907    1.000
    H58      H        0.37230    0.64600    0.74490    1.000
    H59      H        0.41130    0.67680    0.78000    1.000
    H60      H        0.36530    0.70590    0.75270    1.000
    Li4      Li       0.74464    0.39040    0.10871    1.000
    B4       B        0.74894    0.40001    0.89802    1.000
    N25      N        0.75752    0.37818    0.95191    1.000
    N26      N        0.75276    0.36627    0.03570    1.000
    C49      C        0.73868    0.39530    0.99666    1.000
    H61      H        0.71780    0.42460    0.99980    1.000
    C50      C        0.78211    0.32791    0.01464    1.000
    C51      C        0.78459    0.33467    0.96369    1.000
    H62      H        0.80190    0.31330    0.94020    1.000
    C52      C        0.80416    0.28699    0.04590    1.000
    H63      H        0.77740    0.27150    0.06670    1.000
    H64      H        0.83050    0.30120    0.06810    1.000
    H65      H        0.81920    0.26110    0.02370    1.000
    N27      N        0.72468    0.45371    0.90176    1.000
    N28      N        0.71594    0.53786    0.89700    1.000
    C53      C        0.74646    0.49868    0.89141    1.000
    H66      H        0.78090    0.50190    0.88100    1.000
    C54      C        0.67014    0.51659    0.91205    1.000
    C55      C        0.67547    0.46544    0.91442    1.000
    H67      H        0.64960    0.44180    0.92330    1.000
    C56      C        0.62489    0.54974    0.92253    1.000
    H68      H        0.63180    0.57120    0.95220    1.000
    H69      H        0.59510    0.52840    0.92930    1.000
    H70      H        0.61820    0.57130    0.89290    1.000
    N29      N        0.80094    0.40350    0.87234    1.000
    N30      N        0.86293    0.39879    0.81462    1.000
    C57      C        0.81418    0.39059    0.82525    1.000
    H71      H        0.79090    0.37670    0.80140    1.000
    C58      C        0.88368    0.41858    0.85894    1.000
    C59      C        0.84530    0.42207    0.89458    1.000
    H72      H        0.84860    0.43480    0.92820    1.000
    C60      C        0.93819    0.43306    0.86471    1.000
    H73      H        0.95890    0.40230    0.86810    1.000
    H74      H        0.94230    0.45420    0.89510    1.000
    H75      H        0.94920    0.45220    0.83470    1.000
    N31      N        0.71222    0.36573    0.86922    1.000
    N32      N        0.65709    0.30275    0.85439    1.000
    C61      C        0.69029    0.32281    0.88585    1.000
    H76      H        0.69810    0.30810    0.91790    1.000
    C62      C        0.65661    0.33543    0.81324    1.000
    C63      C        0.68908    0.37389    0.82173    1.000
    H77      H        0.69530    0.40170    0.79950    1.000
    C64      C        0.62427    0.32589    0.76907    1.000
    H78      H        0.62770    0.35400    0.74490    1.000
    H79      H        0.58870    0.32320    0.78000    1.000
    H80      H        0.63470    0.29410    0.75270    1.000
    Li5      Li       0.89129    0.74464    0.60960    1.000
    B5       B        0.10198    0.74894    0.59999    1.000
    N33      N        0.04809    0.75752    0.62182    1.000
    N34      N        0.96430    0.75276    0.63373    1.000
    C65      C        0.00334    0.73868    0.60470    1.000
    H81      H        0.00020    0.71780    0.57540    1.000
    C66      C        0.98536    0.78211    0.67209    1.000
    C67      C        0.03631    0.78459    0.66533    1.000
    H82      H        0.05980    0.80190    0.68670    1.000
    C68      C        0.95410    0.80416    0.71301    1.000
    H83      H        0.93330    0.77740    0.72850    1.000
    H84      H        0.93190    0.83050    0.69880    1.000
    H85      H        0.97630    0.81920    0.73890    1.000
    N35      N        0.09824    0.72468    0.54629    1.000
    N36      N        0.10300    0.71594    0.46214    1.000
    C69      C        0.10859    0.74646    0.50132    1.000
    H86      H        0.11900    0.78090    0.49810    1.000
    C70      C        0.08795    0.67014    0.48341    1.000
    C71      C        0.08558    0.67547    0.53456    1.000
    H87      H        0.07670    0.64960    0.55820    1.000
    C72      C        0.07747    0.62489    0.45026    1.000
    H88      H        0.04780    0.63180    0.42880    1.000
    H89      H        0.07070    0.59510    0.47160    1.000
    H90      H        0.10710    0.61820    0.42870    1.000
    N37      N        0.12766    0.80094    0.59650    1.000
    N38      N        0.18538    0.86293    0.60121    1.000
    C73      C        0.17475    0.81418    0.60941    1.000
    H91      H        0.19860    0.79090    0.62330    1.000
    C74      C        0.14106    0.88368    0.58142    1.000
    C75      C        0.10542    0.84530    0.57793    1.000
    H92      H        0.07180    0.84860    0.56520    1.000
    C76      C        0.13529    0.93819    0.56694    1.000
    H93      H        0.13190    0.95890    0.59770    1.000
    H94      H        0.10490    0.94230    0.54580    1.000
    H95      H        0.16530    0.94920    0.54780    1.000
    N39      N        0.13078    0.71222    0.63427    1.000
    N40      N        0.14561    0.65709    0.69725    1.000
    C77      C        0.11415    0.69029    0.67719    1.000
    H96      H        0.08210    0.69810    0.69190    1.000
    C78      C        0.18676    0.65661    0.66457    1.000
    C79      C        0.17827    0.68908    0.62611    1.000
    H97      H        0.20050    0.69530    0.59830    1.000
    C80      C        0.23093    0.62427    0.67411    1.000
    H98      H        0.25510    0.62770    0.64600    1.000
    H99      H        0.22000    0.58870    0.67680    1.000
    H100     H        0.24730    0.63470    0.70590    1.000
    Li6      Li       0.89129    0.25536    0.39040    1.000
    B6       B        0.10198    0.25106    0.40001    1.000
    N41      N        0.04809    0.24248    0.37818    1.000
    N42      N        0.96430    0.24724    0.36627    1.000
    C81      C        0.00334    0.26132    0.39530    1.000
    H101     H        0.00020    0.28220    0.42460    1.000
    C82      C        0.98536    0.21789    0.32791    1.000
    C83      C        0.03631    0.21541    0.33467    1.000
    H102     H        0.05980    0.19810    0.31330    1.000
    C84      C        0.95410    0.19584    0.28699    1.000
    H103     H        0.93330    0.22260    0.27150    1.000
    H104     H        0.93190    0.16950    0.30120    1.000
    H105     H        0.97630    0.18080    0.26110    1.000
    N43      N        0.09824    0.27532    0.45371    1.000
    N44      N        0.10300    0.28406    0.53786    1.000
    C85      C        0.10859    0.25354    0.49868    1.000
    H106     H        0.11900    0.21910    0.50190    1.000
    C86      C        0.08795    0.32986    0.51659    1.000
    C87      C        0.08558    0.32453    0.46544    1.000
    H107     H        0.07670    0.35040    0.44180    1.000
    C88      C        0.07747    0.37511    0.54974    1.000
    H108     H        0.04780    0.36820    0.57120    1.000
    H109     H        0.07070    0.40490    0.52840    1.000
    H110     H        0.10710    0.38180    0.57130    1.000
    N45      N        0.12766    0.19906    0.40350    1.000
    N46      N        0.18538    0.13707    0.39879    1.000
    C89      C        0.17475    0.18582    0.39059    1.000
    H111     H        0.19860    0.20910    0.37670    1.000
    C90      C        0.14106    0.11632    0.41858    1.000
    C91      C        0.10542    0.15470    0.42207    1.000
    H112     H        0.07180    0.15140    0.43480    1.000
    C92      C        0.13529    0.06181    0.43306    1.000
    H113     H        0.13190    0.04110    0.40230    1.000
    H114     H        0.10490    0.05770    0.45420    1.000
    H115     H        0.16530    0.05080    0.45220    1.000
    N47      N        0.13078    0.28778    0.36573    1.000
    N48      N        0.14561    0.34291    0.30275    1.000
    C93      C        0.11415    0.30971    0.32281    1.000
    H116     H        0.08210    0.30190    0.30810    1.000
    C94      C        0.18676    0.34339    0.33543    1.000
    C95      C        0.17827    0.31092    0.37389    1.000
    H117     H        0.20050    0.30470    0.40170    1.000
    C96      C        0.23093    0.37573    0.32589    1.000
    H118     H        0.25510    0.37230    0.35400    1.000
    H119     H        0.22000    0.41130    0.32320    1.000
    H120     H        0.24730    0.36530    0.29410    1.000
    Li7      Li       0.10871    0.25536    0.60960    1.000
    B7       B        0.89802    0.25106    0.59999    1.000
    N49      N        0.95191    0.24248    0.62182    1.000
    N50      N        0.03570    0.24724    0.63373    1.000
    C97      C        0.99666    0.26132    0.60470    1.000
    H121     H        0.99980    0.28220    0.57540    1.000
    C98      C        0.01464    0.21789    0.67209    1.000
    C99      C        0.96369    0.21541    0.66533    1.000
    H122     H        0.94020    0.19810    0.68670    1.000
    C100     C        0.04590    0.19584    0.71301    1.000
    H123     H        0.06670    0.22260    0.72850    1.000
    H124     H        0.06810    0.16950    0.69880    1.000
    H125     H        0.02370    0.18080    0.73890    1.000
    N51      N        0.90176    0.27532    0.54629    1.000
    N52      N        0.89700    0.28406    0.46214    1.000
    C101     C        0.89141    0.25354    0.50132    1.000
    H126     H        0.88100    0.21910    0.49810    1.000
    C102     C        0.91205    0.32986    0.48341    1.000
    C103     C        0.91442    0.32453    0.53456    1.000
    H127     H        0.92330    0.35040    0.55820    1.000
    C104     C        0.92253    0.37511    0.45026    1.000
    H128     H        0.95220    0.36820    0.42880    1.000
    H129     H        0.92930    0.40490    0.47160    1.000
    H130     H        0.89290    0.38180    0.42870    1.000
    N53      N        0.87234    0.19906    0.59650    1.000
    N54      N        0.81462    0.13707    0.60121    1.000
    C105     C        0.82525    0.18582    0.60941    1.000
    H131     H        0.80140    0.20910    0.62330    1.000
    C106     C        0.85894    0.11632    0.58142    1.000
    C107     C        0.89458    0.15470    0.57793    1.000
    H132     H        0.92820    0.15140    0.56520    1.000
    C108     C        0.86471    0.06181    0.56694    1.000
    H133     H        0.86810    0.04110    0.59770    1.000
    H134     H        0.89510    0.05770    0.54580    1.000
    H135     H        0.83470    0.05080    0.54780    1.000
    N55      N        0.86922    0.28778    0.63427    1.000
    N56      N        0.85439    0.34291    0.69725    1.000
    C109     C        0.88585    0.30971    0.67719    1.000
    H136     H        0.91790    0.30190    0.69190    1.000
    C110     C        0.81324    0.34339    0.66457    1.000
    C111     C        0.82173    0.31092    0.62611    1.000
    H137     H        0.79950    0.30470    0.59830    1.000
    C112     C        0.76907    0.37573    0.67411    1.000
    H138     H        0.74490    0.37230    0.64600    1.000
    H139     H        0.78000    0.41130    0.67680    1.000
    H140     H        0.75270    0.36530    0.70590    1.000
    Li8      Li       0.10871    0.74464    0.39040    1.000
    B8       B        0.89802    0.74894    0.40001    1.000
    N57      N        0.95191    0.75752    0.37818    1.000
    N58      N        0.03570    0.75276    0.36627    1.000
    C113     C        0.99666    0.73868    0.39530    1.000
    H141     H        0.99980    0.71780    0.42460    1.000
    C114     C        0.01464    0.78211    0.32791    1.000
    C115     C        0.96369    0.78459    0.33467    1.000
    H142     H        0.94020    0.80190    0.31330    1.000
    C116     C        0.04590    0.80416    0.28699    1.000
    H143     H        0.06670    0.77740    0.27150    1.000
    H144     H        0.06810    0.83050    0.30120    1.000
    H145     H        0.02370    0.81920    0.26110    1.000
    N59      N        0.90176    0.72468    0.45371    1.000
    N60      N        0.89700    0.71594    0.53786    1.000
    C117     C        0.89141    0.74646    0.49868    1.000
    H146     H        0.88100    0.78090    0.50190    1.000
    C118     C        0.91205    0.67014    0.51659    1.000
    C119     C        0.91442    0.67547    0.46544    1.000
    H147     H        0.92330    0.64960    0.44180    1.000
    C120     C        0.92253    0.62489    0.54974    1.000
    H148     H        0.95220    0.63180    0.57120    1.000
    H149     H        0.92930    0.59510    0.52840    1.000
    H150     H        0.89290    0.61820    0.57130    1.000
    N61      N        0.87234    0.80094    0.40350    1.000
    N62      N        0.81462    0.86293    0.39879    1.000
    C121     C        0.82525    0.81418    0.39059    1.000
    H151     H        0.80140    0.79090    0.37670    1.000
    C122     C        0.85894    0.88368    0.41858    1.000
    C123     C        0.89458    0.84530    0.42207    1.000
    H152     H        0.92820    0.84860    0.43480    1.000
    C124     C        0.86471    0.93819    0.43306    1.000
    H153     H        0.86810    0.95890    0.40230    1.000
    H154     H        0.89510    0.94230    0.45420    1.000
    H155     H        0.83470    0.94920    0.45220    1.000
    N63      N        0.86922    0.71222    0.36573    1.000
    N64      N        0.85439    0.65709    0.30275    1.000
    C125     C        0.88585    0.69029    0.32281    1.000
    H156     H        0.91790    0.69810    0.30810    1.000
    C126     C        0.81324    0.65661    0.33543    1.000
    C127     C        0.82173    0.68908    0.37389    1.000
    H157     H        0.79950    0.69530    0.40170    1.000
    C128     C        0.76907    0.62427    0.32589    1.000
    H158     H        0.74490    0.62770    0.35400    1.000
    H159     H        0.78000    0.58870    0.32320    1.000
    H160     H        0.75270    0.63470    0.29410    1.000
    Li9      Li       0.60960    0.89129    0.74464    1.000
    B9       B        0.59999    0.10198    0.74894    1.000
    N65      N        0.62182    0.04809    0.75752    1.000
    N66      N        0.63373    0.96430    0.75276    1.000
    C129     C        0.60470    0.00334    0.73868    1.000
    H161     H        0.57540    0.00020    0.71780    1.000
    C130     C        0.67209    0.98536    0.78211    1.000
    C131     C        0.66533    0.03631    0.78459    1.000
    H162     H        0.68670    0.05980    0.80190    1.000
    C132     C        0.71301    0.95410    0.80416    1.000
    H163     H        0.72850    0.93330    0.77740    1.000
    H164     H        0.69880    0.93190    0.83050    1.000
    H165     H        0.73890    0.97630    0.81920    1.000
    N67      N        0.54629    0.09824    0.72468    1.000
    N68      N        0.46214    0.10300    0.71594    1.000
    C133     C        0.50132    0.10859    0.74646    1.000
    H166     H        0.49810    0.11900    0.78090    1.000
    C134     C        0.48341    0.08795    0.67014    1.000
    C135     C        0.53456    0.08558    0.67547    1.000
    H167     H        0.55820    0.07670    0.64960    1.000
    C136     C        0.45026    0.07747    0.62489    1.000
    H168     H        0.42880    0.04780    0.63180    1.000
    H169     H        0.47160    0.07070    0.59510    1.000
    H170     H        0.42870    0.10710    0.61820    1.000
    N69      N        0.59650    0.12766    0.80094    1.000
    N70      N        0.60121    0.18538    0.86293    1.000
    C137     C        0.60941    0.17475    0.81418    1.000
    H171     H        0.62330    0.19860    0.79090    1.000
    C138     C        0.58142    0.14106    0.88368    1.000
    C139     C        0.57793    0.10542    0.84530    1.000
    H172     H        0.56520    0.07180    0.84860    1.000
    C140     C        0.56694    0.13529    0.93819    1.000
    H173     H        0.59770    0.13190    0.95890    1.000
    H174     H        0.54580    0.10490    0.94230    1.000
    H175     H        0.54780    0.16530    0.94920    1.000
    N71      N        0.63427    0.13078    0.71222    1.000
    N72      N        0.69725    0.14561    0.65709    1.000
    C141     C        0.67719    0.11415    0.69029    1.000
    H176     H        0.69190    0.08210    0.69810    1.000
    C142     C        0.66457    0.18676    0.65661    1.000
    C143     C        0.62611    0.17827    0.68908    1.000
    H177     H        0.59830    0.20050    0.69530    1.000
    C144     C        0.67411    0.23093    0.62427    1.000
    H178     H        0.64600    0.25510    0.62770    1.000
    H179     H        0.67680    0.22000    0.58870    1.000
    H180     H        0.70590    0.24730    0.63470    1.000
    Li10     Li       0.39040    0.89129    0.25536    1.000
    B10      B        0.40001    0.10198    0.25106    1.000
    N73      N        0.37818    0.04809    0.24248    1.000
    N74      N        0.36627    0.96430    0.24724    1.000
    C145     C        0.39530    0.00334    0.26132    1.000
    H181     H        0.42460    0.00020    0.28220    1.000
    C146     C        0.32791    0.98536    0.21789    1.000
    C147     C        0.33467    0.03631    0.21541    1.000
    H182     H        0.31330    0.05980    0.19810    1.000
    C148     C        0.28699    0.95410    0.19584    1.000
    H183     H        0.27150    0.93330    0.22260    1.000
    H184     H        0.30120    0.93190    0.16950    1.000
    H185     H        0.26110    0.97630    0.18080    1.000
    N75      N        0.45371    0.09824    0.27532    1.000
    N76      N        0.53786    0.10300    0.28406    1.000
    C149     C        0.49868    0.10859    0.25354    1.000
    H186     H        0.50190    0.11900    0.21910    1.000
    C150     C        0.51659    0.08795    0.32986    1.000
    C151     C        0.46544    0.08558    0.32453    1.000
    H187     H        0.44180    0.07670    0.35040    1.000
    C152     C        0.54974    0.07747    0.37511    1.000
    H188     H        0.57120    0.04780    0.36820    1.000
    H189     H        0.52840    0.07070    0.40490    1.000
    H190     H        0.57130    0.10710    0.38180    1.000
    N77      N        0.40350    0.12766    0.19906    1.000
    N78      N        0.39879    0.18538    0.13707    1.000
    C153     C        0.39059    0.17475    0.18582    1.000
    H191     H        0.37670    0.19860    0.20910    1.000
    C154     C        0.41858    0.14106    0.11632    1.000
    C155     C        0.42207    0.10542    0.15470    1.000
    H192     H        0.43480    0.07180    0.15140    1.000
    C156     C        0.43306    0.13529    0.06181    1.000
    H193     H        0.40230    0.13190    0.04110    1.000
    H194     H        0.45420    0.10490    0.05770    1.000
    H195     H        0.45220    0.16530    0.05080    1.000
    N79      N        0.36573    0.13078    0.28778    1.000
    N80      N        0.30275    0.14561    0.34291    1.000
    C157     C        0.32281    0.11415    0.30971    1.000
    H196     H        0.30810    0.08210    0.30190    1.000
    C158     C        0.33543    0.18676    0.34339    1.000
    C159     C        0.37389    0.17827    0.31092    1.000
    H197     H        0.40170    0.20050    0.30470    1.000
    C160     C        0.32589    0.23093    0.37573    1.000
    H198     H        0.35400    0.25510    0.37230    1.000
    H199     H        0.32320    0.22000    0.41130    1.000
    H200     H        0.29410    0.24730    0.36530    1.000
    Li11     Li       0.60960    0.10871    0.25536    1.000
    B11      B        0.59999    0.89802    0.25106    1.000
    N81      N        0.62182    0.95191    0.24248    1.000
    N82      N        0.63373    0.03570    0.24724    1.000
    C161     C        0.60470    0.99666    0.26132    1.000
    H201     H        0.57540    0.99980    0.28220    1.000
    C162     C        0.67209    0.01464    0.21789    1.000
    C163     C        0.66533    0.96369    0.21541    1.000
    H202     H        0.68670    0.94020    0.19810    1.000
    C164     C        0.71301    0.04590    0.19584    1.000
    H203     H        0.72850    0.06670    0.22260    1.000
    H204     H        0.69880    0.06810    0.16950    1.000
    H205     H        0.73890    0.02370    0.18080    1.000
    N83      N        0.54629    0.90176    0.27532    1.000
    N84      N        0.46214    0.89700    0.28406    1.000
    C165     C        0.50132    0.89141    0.25354    1.000
    H206     H        0.49810    0.88100    0.21910    1.000
    C166     C        0.48341    0.91205    0.32986    1.000
    C167     C        0.53456    0.91442    0.32453    1.000
    H207     H        0.55820    0.92330    0.35040    1.000
    C168     C        0.45026    0.92253    0.37511    1.000
    H208     H        0.42880    0.95220    0.36820    1.000
    H209     H        0.47160    0.92930    0.40490    1.000
    H210     H        0.42870    0.89290    0.38180    1.000
    N85      N        0.59650    0.87234    0.19906    1.000
    N86      N        0.60121    0.81462    0.13707    1.000
    C169     C        0.60941    0.82525    0.18582    1.000
    H211     H        0.62330    0.80140    0.20910    1.000
    C170     C        0.58142    0.85894    0.11632    1.000
    C171     C        0.57793    0.89458    0.15470    1.000
    H212     H        0.56520    0.92820    0.15140    1.000
    C172     C        0.56694    0.86471    0.06181    1.000
    H213     H        0.59770    0.86810    0.04110    1.000
    H214     H        0.54580    0.89510    0.05770    1.000
    H215     H        0.54780    0.83470    0.05080    1.000
    N87      N        0.63427    0.86922    0.28778    1.000
    N88      N        0.69725    0.85439    0.34291    1.000
    C173     C        0.67719    0.88585    0.30971    1.000
    H216     H        0.69190    0.91790    0.30190    1.000
    C174     C        0.66457    0.81324    0.34339    1.000
    C175     C        0.62611    0.82173    0.31092    1.000
    H217     H        0.59830    0.79950    0.30470    1.000
    C176     C        0.67411    0.76907    0.37573    1.000
    H218     H        0.64600    0.74490    0.37230    1.000
    H219     H        0.67680    0.78000    0.41130    1.000
    H220     H        0.70590    0.75270    0.36530    1.000
    Li12     Li       0.39040    0.10871    0.74464    1.000
    B12      B        0.40001    0.89802    0.74894    1.000
    N89      N        0.37818    0.95191    0.75752    1.000
    N90      N        0.36627    0.03570    0.75276    1.000
    C177     C        0.39530    0.99666    0.73868    1.000
    H221     H        0.42460    0.99980    0.71780    1.000
    C178     C        0.32791    0.01464    0.78211    1.000
    C179     C        0.33467    0.96369    0.78459    1.000
    H222     H        0.31330    0.94020    0.80190    1.000
    C180     C        0.28699    0.04590    0.80416    1.000
    H223     H        0.27150    0.06670    0.77740    1.000
    H224     H        0.30120    0.06810    0.83050    1.000
    H225     H        0.26110    0.02370    0.81920    1.000
    N91      N        0.45371    0.90176    0.72468    1.000
    N92      N        0.53786    0.89700    0.71594    1.000
    C181     C        0.49868    0.89141    0.74646    1.000
    H226     H        0.50190    0.88100    0.78090    1.000
    C182     C        0.51659    0.91205    0.67014    1.000
    C183     C        0.46544    0.91442    0.67547    1.000
    H227     H        0.44180    0.92330    0.64960    1.000
    C184     C        0.54974    0.92253    0.62489    1.000
    H228     H        0.57120    0.95220    0.63180    1.000
    H229     H        0.52840    0.92930    0.59510    1.000
    H230     H        0.57130    0.89290    0.61820    1.000
    N93      N        0.40350    0.87234    0.80094    1.000
    N94      N        0.39879    0.81462    0.86293    1.000
    C185     C        0.39059    0.82525    0.81418    1.000
    H231     H        0.37670    0.80140    0.79090    1.000
    C186     C        0.41858    0.85894    0.88368    1.000
    C187     C        0.42207    0.89458    0.84530    1.000
    H232     H        0.43480    0.92820    0.84860    1.000
    C188     C        0.43306    0.86471    0.93819    1.000
    H233     H        0.40230    0.86810    0.95890    1.000
    H234     H        0.45420    0.89510    0.94230    1.000
    H235     H        0.45220    0.83470    0.94920    1.000
    N95      N        0.36573    0.86922    0.71222    1.000
    N96      N        0.30275    0.85439    0.65709    1.000
    C189     C        0.32281    0.88585    0.69029    1.000
    H236     H        0.30810    0.91790    0.69810    1.000
    C190     C        0.33543    0.81324    0.65661    1.000
    C191     C        0.37389    0.82173    0.68908    1.000
    H237     H        0.40170    0.79950    0.69530    1.000
    C192     C        0.32589    0.76907    0.62427    1.000
    H238     H        0.35400    0.74490    0.62770    1.000
    H239     H        0.32320    0.78000    0.58870    1.000
    H240     H        0.29410    0.75270    0.63470    1.000
    Li13     Li       0.60960    0.74464    0.10871    1.000
    B13      B        0.59999    0.74894    0.89802    1.000
    N97      N        0.62182    0.75752    0.95191    1.000
    N98      N        0.63373    0.75276    0.03570    1.000
    C193     C        0.60470    0.73868    0.99666    1.000
    H241     H        0.57540    0.71780    0.99980    1.000
    C194     C        0.67209    0.78211    0.01464    1.000
    C195     C        0.66533    0.78459    0.96369    1.000
    H242     H        0.68670    0.80190    0.94020    1.000
    C196     C        0.71301    0.80416    0.04590    1.000
    H243     H        0.72850    0.77740    0.06670    1.000
    H244     H        0.69880    0.83050    0.06810    1.000
    H245     H        0.73890    0.81920    0.02370    1.000
    N99      N        0.54629    0.72468    0.90176    1.000
    N100     N        0.46214    0.71594    0.89700    1.000
    C197     C        0.50132    0.74646    0.89141    1.000
    H246     H        0.49810    0.78090    0.88100    1.000
    C198     C        0.48341    0.67014    0.91205    1.000
    C199     C        0.53456    0.67547    0.91442    1.000
    H247     H        0.55820    0.64960    0.92330    1.000
    C200     C        0.45026    0.62489    0.92253    1.000
    H248     H        0.42880    0.63180    0.95220    1.000
    H249     H        0.47160    0.59510    0.92930    1.000
    H250     H        0.42870    0.61820    0.89290    1.000
    N101     N        0.59650    0.80094    0.87234    1.000
    N102     N        0.60121    0.86293    0.81462    1.000
    C201     C        0.60941    0.81418    0.82525    1.000
    H251     H        0.62330    0.79090    0.80140    1.000
    C202     C        0.58142    0.88368    0.85894    1.000
    C203     C        0.57793    0.84530    0.89458    1.000
    H252     H        0.56520    0.84860    0.92820    1.000
    C204     C        0.56694    0.93819    0.86471    1.000
    H253     H        0.59770    0.95890    0.86810    1.000
    H254     H        0.54580    0.94230    0.89510    1.000
    H255     H        0.54780    0.94920    0.83470    1.000
    N103     N        0.63427    0.71222    0.86922    1.000
    N104     N        0.69725    0.65709    0.85439    1.000
    C205     C        0.67719    0.69029    0.88585    1.000
    H256     H        0.69190    0.69810    0.91790    1.000
    C206     C        0.66457    0.65661    0.81324    1.000
    C207     C        0.62611    0.68908    0.82173    1.000
    H257     H        0.59830    0.69530    0.79950    1.000
    C208     C        0.67411    0.62427    0.76907    1.000
    H258     H        0.64600    0.62770    0.74490    1.000
    H259     H        0.67680    0.58870    0.78000    1.000
    H260     H        0.70590    0.63470    0.75270    1.000
    Li14     Li       0.39040    0.25536    0.10871    1.000
    B14      B        0.40001    0.25106    0.89802    1.000
    N105     N        0.37818    0.24248    0.95191    1.000
    N106     N        0.36627    0.24724    0.03570    1.000
    C209     C        0.39530    0.26132    0.99666    1.000
    H261     H        0.42460    0.28220    0.99980    1.000
    C210     C        0.32791    0.21789    0.01464    1.000
    C211     C        0.33467    0.21541    0.96369    1.000
    H262     H        0.31330    0.19810    0.94020    1.000
    C212     C        0.28699    0.19584    0.04590    1.000
    H263     H        0.27150    0.22260    0.06670    1.000
    H264     H        0.30120    0.16950    0.06810    1.000
    H265     H        0.26110    0.18080    0.02370    1.000
    N107     N        0.45371    0.27532    0.90176    1.000
    N108     N        0.53786    0.28406    0.89700    1.000
    C213     C        0.49868    0.25354    0.89141    1.000
    H266     H        0.50190    0.21910    0.88100    1.000
    C214     C        0.51659    0.32986    0.91205    1.000
    C215     C        0.46544    0.32453    0.91442    1.000
    H267     H        0.44180    0.35040    0.92330    1.000
    C216     C        0.54974    0.37511    0.92253    1.000
    H268     H        0.57120    0.36820    0.95220    1.000
    H269     H        0.52840    0.40490    0.92930    1.000
    H270     H        0.57130    0.38180    0.89290    1.000
    N109     N        0.40350    0.19906    0.87234    1.000
    N110     N        0.39879    0.13707    0.81462    1.000
    C217     C        0.39059    0.18582    0.82525    1.000
    H271     H        0.37670    0.20910    0.80140    1.000
    C218     C        0.41858    0.11632    0.85894    1.000
    C219     C        0.42207    0.15470    0.89458    1.000
    H272     H        0.43480    0.15140    0.92820    1.000
    C220     C        0.43306    0.06181    0.86471    1.000
    H273     H        0.40230    0.04110    0.86810    1.000
    H274     H        0.45420    0.05770    0.89510    1.000
    H275     H        0.45220    0.05080    0.83470    1.000
    N111     N        0.36573    0.28778    0.86922    1.000
    N112     N        0.30275    0.34291    0.85439    1.000
    C221     C        0.32281    0.30971    0.88585    1.000
    H276     H        0.30810    0.30190    0.91790    1.000
    C222     C        0.33543    0.34339    0.81324    1.000
    C223     C        0.37389    0.31092    0.82173    1.000
    H277     H        0.40170    0.30470    0.79950    1.000
    C224     C        0.32589    0.37573    0.76907    1.000
    H278     H        0.35400    0.37230    0.74490    1.000
    H279     H        0.32320    0.41130    0.78000    1.000
    H280     H        0.29410    0.36530    0.75270    1.000
    Li15     Li       0.60960    0.25536    0.89129    1.000
    B15      B        0.59999    0.25106    0.10198    1.000
    N113     N        0.62182    0.24248    0.04809    1.000
    N114     N        0.63373    0.24724    0.96430    1.000
    C225     C        0.60470    0.26132    0.00334    1.000
    H281     H        0.57540    0.28220    0.00020    1.000
    C226     C        0.67209    0.21789    0.98536    1.000
    C227     C        0.66533    0.21541    0.03631    1.000
    H282     H        0.68670    0.19810    0.05980    1.000
    C228     C        0.71301    0.19584    0.95410    1.000
    H283     H        0.72850    0.22260    0.93330    1.000
    H284     H        0.69880    0.16950    0.93190    1.000
    H285     H        0.73890    0.18080    0.97630    1.000
    N115     N        0.54629    0.27532    0.09824    1.000
    N116     N        0.46214    0.28406    0.10300    1.000
    C229     C        0.50132    0.25354    0.10859    1.000
    H286     H        0.49810    0.21910    0.11900    1.000
    C230     C        0.48341    0.32986    0.08795    1.000
    C231     C        0.53456    0.32453    0.08558    1.000
    H287     H        0.55820    0.35040    0.07670    1.000
    C232     C        0.45026    0.37511    0.07747    1.000
    H288     H        0.42880    0.36820    0.04780    1.000
    H289     H        0.47160    0.40490    0.07070    1.000
    H290     H        0.42870    0.38180    0.10710    1.000
    N117     N        0.59650    0.19906    0.12766    1.000
    N118     N        0.60121    0.13707    0.18538    1.000
    C233     C        0.60941    0.18582    0.17475    1.000
    H291     H        0.62330    0.20910    0.19860    1.000
    C234     C        0.58142    0.11632    0.14106    1.000
    C235     C        0.57793    0.15470    0.10542    1.000
    H292     H        0.56520    0.15140    0.07180    1.000
    C236     C        0.56694    0.06181    0.13529    1.000
    H293     H        0.59770    0.04110    0.13190    1.000
    H294     H        0.54580    0.05770    0.10490    1.000
    H295     H        0.54780    0.05080    0.16530    1.000
    N119     N        0.63427    0.28778    0.13078    1.000
    N120     N        0.69725    0.34291    0.14561    1.000
    C237     C        0.67719    0.30971    0.11415    1.000
    H296     H        0.69190    0.30190    0.08210    1.000
    C238     C        0.66457    0.34339    0.18676    1.000
    C239     C        0.62611    0.31092    0.17827    1.000
    H297     H        0.59830    0.30470    0.20050    1.000
    C240     C        0.67411    0.37573    0.23093    1.000
    H298     H        0.64600    0.37230    0.25510    1.000
    H299     H        0.67680    0.41130    0.22000    1.000
    H300     H        0.70590    0.36530    0.24730    1.000
    Li16     Li       0.39040    0.74464    0.89129    1.000
    B16      B        0.40001    0.74894    0.10198    1.000
    N121     N        0.37818    0.75752    0.04809    1.000
    N122     N        0.36627    0.75276    0.96430    1.000
    C241     C        0.39530    0.73868    0.00334    1.000
    H301     H        0.42460    0.71780    0.00020    1.000
    C242     C        0.32791    0.78211    0.98536    1.000
    C243     C        0.33467    0.78459    0.03631    1.000
    H302     H        0.31330    0.80190    0.05980    1.000
    C244     C        0.28699    0.80416    0.95410    1.000
    H303     H        0.27150    0.77740    0.93330    1.000
    H304     H        0.30120    0.83050    0.93190    1.000
    H305     H        0.26110    0.81920    0.97630    1.000
    N123     N        0.45371    0.72468    0.09824    1.000
    N124     N        0.53786    0.71594    0.10300    1.000
    C245     C        0.49868    0.74646    0.10859    1.000
    H306     H        0.50190    0.78090    0.11900    1.000
    C246     C        0.51659    0.67014    0.08795    1.000
    C247     C        0.46544    0.67547    0.08558    1.000
    H307     H        0.44180    0.64960    0.07670    1.000
    C248     C        0.54974    0.62489    0.07747    1.000
    H308     H        0.57120    0.63180    0.04780    1.000
    H309     H        0.52840    0.59510    0.07070    1.000
    H310     H        0.57130    0.61820    0.10710    1.000
    N125     N        0.40350    0.80094    0.12766    1.000
    N126     N        0.39879    0.86293    0.18538    1.000
    C249     C        0.39059    0.81418    0.17475    1.000
    H311     H        0.37670    0.79090    0.19860    1.000
    C250     C        0.41858    0.88368    0.14106    1.000
    C251     C        0.42207    0.84530    0.10542    1.000
    H312     H        0.43480    0.84860    0.07180    1.000
    C252     C        0.43306    0.93819    0.13529    1.000
    H313     H        0.40230    0.95890    0.13190    1.000
    H314     H        0.45420    0.94230    0.10490    1.000
    H315     H        0.45220    0.94920    0.16530    1.000
    N127     N        0.36573    0.71222    0.13078    1.000
    N128     N        0.30275    0.65709    0.14561    1.000
    C253     C        0.32281    0.69029    0.11415    1.000
    H316     H        0.30810    0.69810    0.08210    1.000
    C254     C        0.33543    0.65661    0.18676    1.000
    C255     C        0.37389    0.68908    0.17827    1.000
    H317     H        0.40170    0.69530    0.20050    1.000
    C256     C        0.32589    0.62427    0.23093    1.000
    H318     H        0.35400    0.62770    0.25510    1.000
    H319     H        0.32320    0.58870    0.22000    1.000
    H320     H        0.29410    0.63470    0.24730    1.000
    Li17     Li       0.74464    0.89129    0.39040    1.000
    B17      B        0.74894    0.10198    0.40001    1.000
    N129     N        0.75752    0.04809    0.37818    1.000
    N130     N        0.75276    0.96430    0.36627    1.000
    C257     C        0.73868    0.00334    0.39530    1.000
    H321     H        0.71780    0.00020    0.42460    1.000
    C258     C        0.78211    0.98536    0.32791    1.000
    C259     C        0.78459    0.03631    0.33467    1.000
    H322     H        0.80190    0.05980    0.31330    1.000
    C260     C        0.80416    0.95410    0.28699    1.000
    H323     H        0.77740    0.93330    0.27150    1.000
    H324     H        0.83050    0.93190    0.30120    1.000
    H325     H        0.81920    0.97630    0.26110    1.000
    N131     N        0.72468    0.09824    0.45371    1.000
    N132     N        0.71594    0.10300    0.53786    1.000
    C261     C        0.74646    0.10859    0.49868    1.000
    H326     H        0.78090    0.11900    0.50190    1.000
    C262     C        0.67014    0.08795    0.51659    1.000
    C263     C        0.67547    0.08558    0.46544    1.000
    H327     H        0.64960    0.07670    0.44180    1.000
    C264     C        0.62489    0.07747    0.54974    1.000
    H328     H        0.63180    0.04780    0.57120    1.000
    H329     H        0.59510    0.07070    0.52840    1.000
    H330     H        0.61820    0.10710    0.57130    1.000
    N133     N        0.80094    0.12766    0.40350    1.000
    N134     N        0.86293    0.18538    0.39879    1.000
    C265     C        0.81418    0.17475    0.39059    1.000
    H331     H        0.79090    0.19860    0.37670    1.000
    C266     C        0.88368    0.14106    0.41858    1.000
    C267     C        0.84530    0.10542    0.42207    1.000
    H332     H        0.84860    0.07180    0.43480    1.000
    C268     C        0.93819    0.13529    0.43306    1.000
    H333     H        0.95890    0.13190    0.40230    1.000
    H334     H        0.94230    0.10490    0.45420    1.000
    H335     H        0.94920    0.16530    0.45220    1.000
    N135     N        0.71222    0.13078    0.36573    1.000
    N136     N        0.65709    0.14561    0.30275    1.000
    C269     C        0.69029    0.11415    0.32281    1.000
    H336     H        0.69810    0.08210    0.30810    1.000
    C270     C        0.65661    0.18676    0.33543    1.000
    C271     C        0.68908    0.17827    0.37389    1.000
    H337     H        0.69530    0.20050    0.40170    1.000
    C272     C        0.62427    0.23093    0.32589    1.000
    H338     H        0.62770    0.25510    0.35400    1.000
    H339     H        0.58870    0.22000    0.32320    1.000
    H340     H        0.63470    0.24730    0.29410    1.000
    Li18     Li       0.25536    0.89129    0.60960    1.000
    B18      B        0.25106    0.10198    0.59999    1.000
    N137     N        0.24248    0.04809    0.62182    1.000
    N138     N        0.24724    0.96430    0.63373    1.000
    C273     C        0.26132    0.00334    0.60470    1.000
    H341     H        0.28220    0.00020    0.57540    1.000
    C274     C        0.21789    0.98536    0.67209    1.000
    C275     C        0.21541    0.03631    0.66533    1.000
    H342     H        0.19810    0.05980    0.68670    1.000
    C276     C        0.19584    0.95410    0.71301    1.000
    H343     H        0.22260    0.93330    0.72850    1.000
    H344     H        0.16950    0.93190    0.69880    1.000
    H345     H        0.18080    0.97630    0.73890    1.000
    N139     N        0.27532    0.09824    0.54629    1.000
    N140     N        0.28406    0.10300    0.46214    1.000
    C277     C        0.25354    0.10859    0.50132    1.000
    H346     H        0.21910    0.11900    0.49810    1.000
    C278     C        0.32986    0.08795    0.48341    1.000
    C279     C        0.32453    0.08558    0.53456    1.000
    H347     H        0.35040    0.07670    0.55820    1.000
    C280     C        0.37511    0.07747    0.45026    1.000
    H348     H        0.36820    0.04780    0.42880    1.000
    H349     H        0.40490    0.07070    0.47160    1.000
    H350     H        0.38180    0.10710    0.42870    1.000
    N141     N        0.19906    0.12766    0.59650    1.000
    N142     N        0.13707    0.18538    0.60121    1.000
    C281     C        0.18582    0.17475    0.60941    1.000
    H351     H        0.20910    0.19860    0.62330    1.000
    C282     C        0.11632    0.14106    0.58142    1.000
    C283     C        0.15470    0.10542    0.57793    1.000
    H352     H        0.15140    0.07180    0.56520    1.000
    C284     C        0.06181    0.13529    0.56694    1.000
    H353     H        0.04110    0.13190    0.59770    1.000
    H354     H        0.05770    0.10490    0.54580    1.000
    H355     H        0.05080    0.16530    0.54780    1.000
    N143     N        0.28778    0.13078    0.63427    1.000
    N144     N        0.34291    0.14561    0.69725    1.000
    C285     C        0.30971    0.11415    0.67719    1.000
    H356     H        0.30190    0.08210    0.69190    1.000
    C286     C        0.34339    0.18676    0.66457    1.000
    C287     C        0.31092    0.17827    0.62611    1.000
    H357     H        0.30470    0.20050    0.59830    1.000
    C288     C        0.37573    0.23093    0.67411    1.000
    H358     H        0.37230    0.25510    0.64600    1.000
    H359     H        0.41130    0.22000    0.67680    1.000
    H360     H        0.36530    0.24730    0.70590    1.000
    Li19     Li       0.25536    0.10871    0.39040    1.000
    B19      B        0.25106    0.89802    0.40001    1.000
    N145     N        0.24248    0.95191    0.37818    1.000
    N146     N        0.24724    0.03570    0.36627    1.000
    C289     C        0.26132    0.99666    0.39530    1.000
    H361     H        0.28220    0.99980    0.42460    1.000
    C290     C        0.21789    0.01464    0.32791    1.000
    C291     C        0.21541    0.96369    0.33467    1.000
    H362     H        0.19810    0.94020    0.31330    1.000
    C292     C        0.19584    0.04590    0.28699    1.000
    H363     H        0.22260    0.06670    0.27150    1.000
    H364     H        0.16950    0.06810    0.30120    1.000
    H365     H        0.18080    0.02370    0.26110    1.000
    N147     N        0.27532    0.90176    0.45371    1.000
    N148     N        0.28406    0.89700    0.53786    1.000
    C293     C        0.25354    0.89141    0.49868    1.000
    H366     H        0.21910    0.88100    0.50190    1.000
    C294     C        0.32986    0.91205    0.51659    1.000
    C295     C        0.32453    0.91442    0.46544    1.000
    H367     H        0.35040    0.92330    0.44180    1.000
    C296     C        0.37511    0.92253    0.54974    1.000
    H368     H        0.36820    0.95220    0.57120    1.000
    H369     H        0.40490    0.92930    0.52840    1.000
    H370     H        0.38180    0.89290    0.57130    1.000
    N149     N        0.19906    0.87234    0.40350    1.000
    N150     N        0.13707    0.81462    0.39879    1.000
    C297     C        0.18582    0.82525    0.39059    1.000
    H371     H        0.20910    0.80140    0.37670    1.000
    C298     C        0.11632    0.85894    0.41858    1.000
    C299     C        0.15470    0.89458    0.42207    1.000
    H372     H        0.15140    0.92820    0.43480    1.000
    C300     C        0.06181    0.86471    0.43306    1.000
    H373     H        0.04110    0.86810    0.40230    1.000
    H374     H        0.05770    0.89510    0.45420    1.000
    H375     H        0.05080    0.83470    0.45220    1.000
    N151     N        0.28778    0.86922    0.36573    1.000
    N152     N        0.34291    0.85439    0.30275    1.000
    C301     C        0.30971    0.88585    0.32281    1.000
    H376     H        0.30190    0.91790    0.30810    1.000
    C302     C        0.34339    0.81324    0.33543    1.000
    C303     C        0.31092    0.82173    0.37389    1.000
    H377     H        0.30470    0.79950    0.40170    1.000
    C304     C        0.37573    0.76907    0.32589    1.000
    H378     H        0.37230    0.74490    0.35400    1.000
    H379     H        0.41130    0.78000    0.32320    1.000
    H380     H        0.36530    0.75270    0.29410    1.000
    Li20     Li       0.74464    0.10871    0.60960    1.000
    B20      B        0.74894    0.89802    0.59999    1.000
    N153     N        0.75752    0.95191    0.62182    1.000
    N154     N        0.75276    0.03570    0.63373    1.000
    C305     C        0.73868    0.99666    0.60470    1.000
    H381     H        0.71780    0.99980    0.57540    1.000
    C306     C        0.78211    0.01464    0.67209    1.000
    C307     C        0.78459    0.96369    0.66533    1.000
    H382     H        0.80190    0.94020    0.68670    1.000
    C308     C        0.80416    0.04590    0.71301    1.000
    H383     H        0.77740    0.06670    0.72850    1.000
    H384     H        0.83050    0.06810    0.69880    1.000
    H385     H        0.81920    0.02370    0.73890    1.000
    N155     N        0.72468    0.90176    0.54629    1.000
    N156     N        0.71594    0.89700    0.46214    1.000
    C309     C        0.74646    0.89141    0.50132    1.000
    H386     H        0.78090    0.88100    0.49810    1.000
    C310     C        0.67014    0.91205    0.48341    1.000
    C311     C        0.67547    0.91442    0.53456    1.000
    H387     H        0.64960    0.92330    0.55820    1.000
    C312     C        0.62489    0.92253    0.45026    1.000
    H388     H        0.63180    0.95220    0.42880    1.000
    H389     H        0.59510    0.92930    0.47160    1.000
    H390     H        0.61820    0.89290    0.42870    1.000
    N157     N        0.80094    0.87234    0.59650    1.000
    N158     N        0.86293    0.81462    0.60121    1.000
    C313     C        0.81418    0.82525    0.60941    1.000
    H391     H        0.79090    0.80140    0.62330    1.000
    C314     C        0.88368    0.85894    0.58142    1.000
    C315     C        0.84530    0.89458    0.57793    1.000
    H392     H        0.84860    0.92820    0.56520    1.000
    C316     C        0.93819    0.86471    0.56694    1.000
    H393     H        0.95890    0.86810    0.59770    1.000
    H394     H        0.94230    0.89510    0.54580    1.000
    H395     H        0.94920    0.83470    0.54780    1.000
    N159     N        0.71222    0.86922    0.63427    1.000
    N160     N        0.65709    0.85439    0.69725    1.000
    C317     C        0.69029    0.88585    0.67719    1.000
    H396     H        0.69810    0.91790    0.69190    1.000
    C318     C        0.65661    0.81324    0.66457    1.000
    C319     C        0.68908    0.82173    0.62611    1.000
    H397     H        0.69530    0.79950    0.59830    1.000
    C320     C        0.62427    0.76907    0.67411    1.000
    H398     H        0.62770    0.74490    0.64600    1.000
    H399     H        0.58870    0.78000    0.67680    1.000
    H400     H        0.63470    0.75270    0.70590    1.000
    Li21     Li       0.89129    0.60960    0.25536    1.000
    B21      B        0.10198    0.59999    0.25106    1.000
    N161     N        0.04809    0.62182    0.24248    1.000
    N162     N        0.96430    0.63373    0.24724    1.000
    C321     C        0.00334    0.60470    0.26132    1.000
    H401     H        0.00020    0.57540    0.28220    1.000
    C322     C        0.98536    0.67209    0.21789    1.000
    C323     C        0.03631    0.66533    0.21541    1.000
    H402     H        0.05980    0.68670    0.19810    1.000
    C324     C        0.95410    0.71301    0.19584    1.000
    H403     H        0.93330    0.72850    0.22260    1.000
    H404     H        0.93190    0.69880    0.16950    1.000
    H405     H        0.97630    0.73890    0.18080    1.000
    N163     N        0.09824    0.54629    0.27532    1.000
    N164     N        0.10300    0.46214    0.28406    1.000
    C325     C        0.10859    0.50132    0.25354    1.000
    H406     H        0.11900    0.49810    0.21910    1.000
    C326     C        0.08795    0.48341    0.32986    1.000
    C327     C        0.08558    0.53456    0.32453    1.000
    H407     H        0.07670    0.55820    0.35040    1.000
    C328     C        0.07747    0.45026    0.37511    1.000
    H408     H        0.04780    0.42880    0.36820    1.000
    H409     H        0.07070    0.47160    0.40490    1.000
    H410     H        0.10710    0.42870    0.38180    1.000
    N165     N        0.12766    0.59650    0.19906    1.000
    N166     N        0.18538    0.60121    0.13707    1.000
    C329     C        0.17475    0.60941    0.18582    1.000
    H411     H        0.19860    0.62330    0.20910    1.000
    C330     C        0.14106    0.58142    0.11632    1.000
    C331     C        0.10542    0.57793    0.15470    1.000
    H412     H        0.07180    0.56520    0.15140    1.000
    C332     C        0.13529    0.56694    0.06181    1.000
    H413     H        0.13190    0.59770    0.04110    1.000
    H414     H        0.10490    0.54580    0.05770    1.000
    H415     H        0.16530    0.54780    0.05080    1.000
    N167     N        0.13078    0.63427    0.28778    1.000
    N168     N        0.14561    0.69725    0.34291    1.000
    C333     C        0.11415    0.67719    0.30971    1.000
    H416     H        0.08210    0.69190    0.30190    1.000
    C334     C        0.18676    0.66457    0.34339    1.000
    C335     C        0.17827    0.62611    0.31092    1.000
    H417     H        0.20050    0.59830    0.30470    1.000
    C336     C        0.23093    0.67411    0.37573    1.000
    H418     H        0.25510    0.64600    0.37230    1.000
    H419     H        0.22000    0.67680    0.41130    1.000
    H420     H        0.24730    0.70590    0.36530    1.000
    Li22     Li       0.89129    0.39040    0.74464    1.000
    B22      B        0.10198    0.40001    0.74894    1.000
    N169     N        0.04809    0.37818    0.75752    1.000
    N170     N        0.96430    0.36627    0.75276    1.000
    C337     C        0.00334    0.39530    0.73868    1.000
    H421     H        0.00020    0.42460    0.71780    1.000
    C338     C        0.98536    0.32791    0.78211    1.000
    C339     C        0.03631    0.33467    0.78459    1.000
    H422     H        0.05980    0.31330    0.80190    1.000
    C340     C        0.95410    0.28699    0.80416    1.000
    H423     H        0.93330    0.27150    0.77740    1.000
    H424     H        0.93190    0.30120    0.83050    1.000
    H425     H        0.97630    0.26110    0.81920    1.000
    N171     N        0.09824    0.45371    0.72468    1.000
    N172     N        0.10300    0.53786    0.71594    1.000
    C341     C        0.10859    0.49868    0.74646    1.000
    H426     H        0.11900    0.50190    0.78090    1.000
    C342     C        0.08795    0.51659    0.67014    1.000
    C343     C        0.08558    0.46544    0.67547    1.000
    H427     H        0.07670    0.44180    0.64960    1.000
    C344     C        0.07747    0.54974    0.62489    1.000
    H428     H        0.04780    0.57120    0.63180    1.000
    H429     H        0.07070    0.52840    0.59510    1.000
    H430     H        0.10710    0.57130    0.61820    1.000
    N173     N        0.12766    0.40350    0.80094    1.000
    N174     N        0.18538    0.39879    0.86293    1.000
    C345     C        0.17475    0.39059    0.81418    1.000
    H431     H        0.19860    0.37670    0.79090    1.000
    C346     C        0.14106    0.41858    0.88368    1.000
    C347     C        0.10542    0.42207    0.84530    1.000
    H432     H        0.07180    0.43480    0.84860    1.000
    C348     C        0.13529    0.43306    0.93819    1.000
    H433     H        0.13190    0.40230    0.95890    1.000
    H434     H        0.10490    0.45420    0.94230    1.000
    H435     H        0.16530    0.45220    0.94920    1.000
    N175     N        0.13078    0.36573    0.71222    1.000
    N176     N        0.14561    0.30275    0.65709    1.000
    C349     C        0.11415    0.32281    0.69029    1.000
    H436     H        0.08210    0.30810    0.69810    1.000
    C350     C        0.18676    0.33543    0.65661    1.000
    C351     C        0.17827    0.37389    0.68908    1.000
    H437     H        0.20050    0.40170    0.69530    1.000
    C352     C        0.23093    0.32589    0.62427    1.000
    H438     H        0.25510    0.35400    0.62770    1.000
    H439     H        0.22000    0.32320    0.58870    1.000
    H440     H        0.24730    0.29410    0.63470    1.000
    Li23     Li       0.10871    0.60960    0.74464    1.000
    B23      B        0.89802    0.59999    0.74894    1.000
    N177     N        0.95191    0.62182    0.75752    1.000
    N178     N        0.03570    0.63373    0.75276    1.000
    C353     C        0.99666    0.60470    0.73868    1.000
    H441     H        0.99980    0.57540    0.71780    1.000
    C354     C        0.01464    0.67209    0.78211    1.000
    C355     C        0.96369    0.66533    0.78459    1.000
    H442     H        0.94020    0.68670    0.80190    1.000
    C356     C        0.04590    0.71301    0.80416    1.000
    H443     H        0.06670    0.72850    0.77740    1.000
    H444     H        0.06810    0.69880    0.83050    1.000
    H445     H        0.02370    0.73890    0.81920    1.000
    N179     N        0.90176    0.54629    0.72468    1.000
    N180     N        0.89700    0.46214    0.71594    1.000
    C357     C        0.89141    0.50132    0.74646    1.000
    H446     H        0.88100    0.49810    0.78090    1.000
    C358     C        0.91205    0.48341    0.67014    1.000
    C359     C        0.91442    0.53456    0.67547    1.000
    H447     H        0.92330    0.55820    0.64960    1.000
    C360     C        0.92253    0.45026    0.62489    1.000
    H448     H        0.95220    0.42880    0.63180    1.000
    H449     H        0.92930    0.47160    0.59510    1.000
    H450     H        0.89290    0.42870    0.61820    1.000
    N181     N        0.87234    0.59650    0.80094    1.000
    N182     N        0.81462    0.60121    0.86293    1.000
    C361     C        0.82525    0.60941    0.81418    1.000
    H451     H        0.80140    0.62330    0.79090    1.000
    C362     C        0.85894    0.58142    0.88368    1.000
    C363     C        0.89458    0.57793    0.84530    1.000
    H452     H        0.92820    0.56520    0.84860    1.000
    C364     C        0.86471    0.56694    0.93819    1.000
    H453     H        0.86810    0.59770    0.95890    1.000
    H454     H        0.89510    0.54580    0.94230    1.000
    H455     H        0.83470    0.54780    0.94920    1.000
    N183     N        0.86922    0.63427    0.71222    1.000
    N184     N        0.85439    0.69725    0.65709    1.000
    C365     C        0.88585    0.67719    0.69029    1.000
    H456     H        0.91790    0.69190    0.69810    1.000
    C366     C        0.81324    0.66457    0.65661    1.000
    C367     C        0.82173    0.62611    0.68908    1.000
    H457     H        0.79950    0.59830    0.69530    1.000
    C368     C        0.76907    0.67411    0.62427    1.000
    H458     H        0.74490    0.64600    0.62770    1.000
    H459     H        0.78000    0.67680    0.58870    1.000
    H460     H        0.75270    0.70590    0.63470    1.000
    Li24     Li       0.10871    0.39040    0.25536    1.000
    B24      B        0.89802    0.40001    0.25106    1.000
    N185     N        0.95191    0.37818    0.24248    1.000
    N186     N        0.03570    0.36627    0.24724    1.000
    C369     C        0.99666    0.39530    0.26132    1.000
    H461     H        0.99980    0.42460    0.28220    1.000
    C370     C        0.01464    0.32791    0.21789    1.000
    C371     C        0.96369    0.33467    0.21541    1.000
    H462     H        0.94020    0.31330    0.19810    1.000
    C372     C        0.04590    0.28699    0.19584    1.000
    H463     H        0.06670    0.27150    0.22260    1.000
    H464     H        0.06810    0.30120    0.16950    1.000
    H465     H        0.02370    0.26110    0.18080    1.000
    N187     N        0.90176    0.45371    0.27532    1.000
    N188     N        0.89700    0.53786    0.28406    1.000
    C373     C        0.89141    0.49868    0.25354    1.000
    H466     H        0.88100    0.50190    0.21910    1.000
    C374     C        0.91205    0.51659    0.32986    1.000
    C375     C        0.91442    0.46544    0.32453    1.000
    H467     H        0.92330    0.44180    0.35040    1.000
    C376     C        0.92253    0.54974    0.37511    1.000
    H468     H        0.95220    0.57120    0.36820    1.000
    H469     H        0.92930    0.52840    0.40490    1.000
    H470     H        0.89290    0.57130    0.38180    1.000
    N189     N        0.87234    0.40350    0.19906    1.000
    N190     N        0.81462    0.39879    0.13707    1.000
    C377     C        0.82525    0.39059    0.18582    1.000
    H471     H        0.80140    0.37670    0.20910    1.000
    C378     C        0.85894    0.41858    0.11632    1.000
    C379     C        0.89458    0.42207    0.15470    1.000
    H472     H        0.92820    0.43480    0.15140    1.000
    C380     C        0.86471    0.43306    0.06181    1.000
    H473     H        0.86810    0.40230    0.04110    1.000
    H474     H        0.89510    0.45420    0.05770    1.000
    H475     H        0.83470    0.45220    0.05080    1.000
    N191     N        0.86922    0.36573    0.28778    1.000
    N192     N        0.85439    0.30275    0.34291    1.000
    C381     C        0.88585    0.32281    0.30971    1.000
    H476     H        0.91790    0.30810    0.30190    1.000
    C382     C        0.81324    0.33543    0.34339    1.000
    C383     C        0.82173    0.37389    0.31092    1.000
    H477     H        0.79950    0.40170    0.30470    1.000
    C384     C        0.76907    0.32589    0.37573    1.000
    H478     H        0.74490    0.35400    0.37230    1.000
    H479     H        0.78000    0.32320    0.41130    1.000
    H480     H        0.75270    0.29410    0.36530    1.000
