# CIF file generated by openbabel 3.1.0, see https://openbabel.org
data_I
_chemical_name_common 'image0'
_cell_length_a 28.3006
_cell_length_b 20.085
_cell_length_c 15.4335
_cell_angle_alpha 90
_cell_angle_beta 92.498
_cell_angle_gamma 90
_space_group_name_H-M_alt 'P 1'
_space_group_name_Hall 'P 1'
loop_
    _symmetry_equiv_pos_as_xyz
    x,y,z
loop_
    _atom_site_label
    _atom_site_type_symbol
    _atom_site_fract_x
    _atom_site_fract_y
    _atom_site_fract_z
    _atom_site_occupancy
    Zn1      Zn       0.06489    0.00518    0.01129    1.000
    C1       C        0.03607    0.12010    0.89950    1.000
    C2       C        0.96257    0.10960    0.87910    1.000
    C3       C        0.37618    0.18820    0.28450    1.000
    C4       C        0.36108    0.14160    0.34270    1.000
    H1       H        0.38290    0.12440    0.38360    1.000
    C5       C        0.31533    0.11960    0.34290    1.000
    H2       H        0.30630    0.08890    0.38420    1.000
    C6       C        0.28213    0.14350    0.28030    1.000
    C7       C        0.29709    0.18920    0.22320    1.000
    H3       H        0.27560    0.20550    0.18110    1.000
    C8       C        0.34359    0.21300    0.22510    1.000
    H4       H        0.35230    0.24550    0.18600    1.000
    C9       C        0.42629    0.21240    0.28870    1.000
    C10      C        0.23197    0.11940    0.27730    1.000
    C11      C        0.20961    0.10490    0.35310    1.000
    H5       H        0.22510    0.11330    0.40630    1.000
    C12      C        0.16436    0.07780    0.35080    1.000
    C13      C        0.14033    0.06970    0.26940    1.000
    H6       H        0.10980    0.05240    0.26670    1.000
    C14      C        0.16134    0.08670    0.19530    1.000
    C15      C        0.20712    0.11420    0.19950    1.000
    H7       H        0.22060    0.12900    0.14900    1.000
    C16      C        0.13984    0.05980    0.43140    1.000
    C17      C        0.13449    0.07670    0.10890    1.000
    O1       O        0.43677    0.25670    0.23510    1.000
    O2       O        0.45543    0.18870    0.34040    1.000
    O3       O        0.15649    0.07570    0.50200    1.000
    O4       O        0.10193    0.02860    0.41990    1.000
    O5       O        0.14792    0.10350    0.04270    1.000
    O6       O        0.09906    0.03950    0.11220    1.000
    N1       N        0.02345    0.07040    0.95290    1.000
    N2       N        0.97471    0.06450    0.93790    1.000
    N3       N        0.99883    0.14730    0.85250    1.000
    N4       N        0.08068    0.14160    0.89410    1.000
    H8       H        0.10300    0.12370    0.92560    1.000
    H9       H        0.08700    0.17340    0.85910    1.000
    N5       N        0.91681    0.11990    0.84770    1.000
    H10      H        0.89420    0.09620    0.86650    1.000
    H11      H        0.91090    0.15020    0.80920    1.000
    Zn2      Zn       0.56489    0.50518    0.01129    1.000
    C18      C        0.53607    0.62010    0.89950    1.000
    C19      C        0.46257    0.60960    0.87910    1.000
    C20      C        0.87618    0.68820    0.28450    1.000
    C21      C        0.86108    0.64160    0.34270    1.000
    H12      H        0.88290    0.62440    0.38360    1.000
    C22      C        0.81533    0.61960    0.34290    1.000
    H13      H        0.80630    0.58890    0.38420    1.000
    C23      C        0.78213    0.64350    0.28030    1.000
    C24      C        0.79709    0.68920    0.22320    1.000
    H14      H        0.77560    0.70550    0.18110    1.000
    C25      C        0.84359    0.71300    0.22510    1.000
    H15      H        0.85230    0.74550    0.18600    1.000
    C26      C        0.92629    0.71240    0.28870    1.000
    C27      C        0.73197    0.61940    0.27730    1.000
    C28      C        0.70961    0.60490    0.35310    1.000
    H16      H        0.72510    0.61330    0.40630    1.000
    C29      C        0.66436    0.57780    0.35080    1.000
    C30      C        0.64033    0.56970    0.26940    1.000
    H17      H        0.60980    0.55240    0.26670    1.000
    C31      C        0.66134    0.58670    0.19530    1.000
    C32      C        0.70712    0.61420    0.19950    1.000
    H18      H        0.72060    0.62900    0.14900    1.000
    C33      C        0.63984    0.55980    0.43140    1.000
    C34      C        0.63449    0.57670    0.10890    1.000
    O7       O        0.93677    0.75670    0.23510    1.000
    O8       O        0.95543    0.68870    0.34040    1.000
    O9       O        0.65649    0.57570    0.50200    1.000
    O10      O        0.60193    0.52860    0.41990    1.000
    O11      O        0.64792    0.60350    0.04270    1.000
    O12      O        0.59906    0.53950    0.11220    1.000
    N6       N        0.52345    0.57040    0.95290    1.000
    N7       N        0.47471    0.56450    0.93790    1.000
    N8       N        0.49883    0.64730    0.85250    1.000
    N9       N        0.58068    0.64160    0.89410    1.000
    H19      H        0.60300    0.62370    0.92560    1.000
    H20      H        0.58700    0.67340    0.85910    1.000
    N10      N        0.41681    0.61990    0.84770    1.000
    H21      H        0.39420    0.59620    0.86650    1.000
    H22      H        0.41090    0.65020    0.80920    1.000
    Zn3      Zn       0.93511    0.00518    0.48871    1.000
    C35      C        0.96393    0.12010    0.60050    1.000
    C36      C        0.03743    0.10960    0.62090    1.000
    C37      C        0.62382    0.18820    0.21550    1.000
    C38      C        0.63892    0.14160    0.15730    1.000
    H23      H        0.61710    0.12440    0.11640    1.000
    C39      C        0.68467    0.11960    0.15710    1.000
    H24      H        0.69370    0.08890    0.11580    1.000
    C40      C        0.71787    0.14350    0.21970    1.000
    C41      C        0.70291    0.18920    0.27680    1.000
    H25      H        0.72440    0.20550    0.31890    1.000
    C42      C        0.65641    0.21300    0.27490    1.000
    H26      H        0.64770    0.24550    0.31400    1.000
    C43      C        0.57371    0.21240    0.21130    1.000
    C44      C        0.76803    0.11940    0.22270    1.000
    C45      C        0.79039    0.10490    0.14690    1.000
    H27      H        0.77490    0.11330    0.09370    1.000
    C46      C        0.83564    0.07780    0.14920    1.000
    C47      C        0.85967    0.06970    0.23060    1.000
    H28      H        0.89020    0.05240    0.23330    1.000
    C48      C        0.83866    0.08670    0.30470    1.000
    C49      C        0.79288    0.11420    0.30050    1.000
    H29      H        0.77940    0.12900    0.35100    1.000
    C50      C        0.86016    0.05980    0.06860    1.000
    C51      C        0.86551    0.07670    0.39110    1.000
    O13      O        0.56323    0.25670    0.26490    1.000
    O14      O        0.54457    0.18870    0.15960    1.000
    O15      O        0.84351    0.07570    0.99800    1.000
    O16      O        0.89807    0.02860    0.08010    1.000
    O17      O        0.85208    0.10350    0.45730    1.000
    O18      O        0.90094    0.03950    0.38780    1.000
    N11      N        0.97655    0.07040    0.54710    1.000
    N12      N        0.02529    0.06450    0.56210    1.000
    N13      N        0.00117    0.14730    0.64750    1.000
    N14      N        0.91932    0.14160    0.60590    1.000
    H30      H        0.89700    0.12370    0.57440    1.000
    H31      H        0.91300    0.17340    0.64090    1.000
    N15      N        0.08319    0.11990    0.65230    1.000
    H32      H        0.10580    0.09620    0.63350    1.000
    H33      H        0.08910    0.15020    0.69080    1.000
    Zn4      Zn       0.43511    0.50518    0.48871    1.000
    C52      C        0.46393    0.62010    0.60050    1.000
    C53      C        0.53743    0.60960    0.62090    1.000
    C54      C        0.12382    0.68820    0.21550    1.000
    C55      C        0.13892    0.64160    0.15730    1.000
    H34      H        0.11710    0.62440    0.11640    1.000
    C56      C        0.18467    0.61960    0.15710    1.000
    H35      H        0.19370    0.58890    0.11580    1.000
    C57      C        0.21787    0.64350    0.21970    1.000
    C58      C        0.20291    0.68920    0.27680    1.000
    H36      H        0.22440    0.70550    0.31890    1.000
    C59      C        0.15641    0.71300    0.27490    1.000
    H37      H        0.14770    0.74550    0.31400    1.000
    C60      C        0.07371    0.71240    0.21130    1.000
    C61      C        0.26803    0.61940    0.22270    1.000
    C62      C        0.29039    0.60490    0.14690    1.000
    H38      H        0.27490    0.61330    0.09370    1.000
    C63      C        0.33564    0.57780    0.14920    1.000
    C64      C        0.35967    0.56970    0.23060    1.000
    H39      H        0.39020    0.55240    0.23330    1.000
    C65      C        0.33866    0.58670    0.30470    1.000
    C66      C        0.29288    0.61420    0.30050    1.000
    H40      H        0.27940    0.62900    0.35100    1.000
    C67      C        0.36016    0.55980    0.06860    1.000
    C68      C        0.36551    0.57670    0.39110    1.000
    O19      O        0.06323    0.75670    0.26490    1.000
    O20      O        0.04457    0.68870    0.15960    1.000
    O21      O        0.34351    0.57570    0.99800    1.000
    O22      O        0.39807    0.52860    0.08010    1.000
    O23      O        0.35208    0.60350    0.45730    1.000
    O24      O        0.40094    0.53950    0.38780    1.000
    N16      N        0.47655    0.57040    0.54710    1.000
    N17      N        0.52529    0.56450    0.56210    1.000
    N18      N        0.50117    0.64730    0.64750    1.000
    N19      N        0.41932    0.64160    0.60590    1.000
    H41      H        0.39700    0.62370    0.57440    1.000
    H42      H        0.41300    0.67340    0.64090    1.000
    N20      N        0.58319    0.61990    0.65230    1.000
    H43      H        0.60580    0.59620    0.63350    1.000
    H44      H        0.58910    0.65020    0.69080    1.000
    Zn5      Zn       0.93511    0.99482    0.98871    1.000
    C69      C        0.96393    0.87990    0.10050    1.000
    C70      C        0.03743    0.89040    0.12090    1.000
    C71      C        0.62382    0.81180    0.71550    1.000
    C72      C        0.63892    0.85840    0.65730    1.000
    H45      H        0.61710    0.87560    0.61640    1.000
    C73      C        0.68467    0.88040    0.65710    1.000
    H46      H        0.69370    0.91110    0.61580    1.000
    C74      C        0.71787    0.85650    0.71970    1.000
    C75      C        0.70291    0.81080    0.77680    1.000
    H47      H        0.72440    0.79450    0.81890    1.000
    C76      C        0.65641    0.78700    0.77490    1.000
    H48      H        0.64770    0.75450    0.81400    1.000
    C77      C        0.57371    0.78760    0.71130    1.000
    C78      C        0.76803    0.88060    0.72270    1.000
    C79      C        0.79039    0.89510    0.64690    1.000
    H49      H        0.77490    0.88670    0.59370    1.000
    C80      C        0.83564    0.92220    0.64920    1.000
    C81      C        0.85967    0.93030    0.73060    1.000
    H50      H        0.89020    0.94760    0.73330    1.000
    C82      C        0.83866    0.91330    0.80470    1.000
    C83      C        0.79288    0.88580    0.80050    1.000
    H51      H        0.77940    0.87100    0.85100    1.000
    C84      C        0.86016    0.94020    0.56860    1.000
    C85      C        0.86551    0.92330    0.89110    1.000
    O25      O        0.56323    0.74330    0.76490    1.000
    O26      O        0.54457    0.81130    0.65960    1.000
    O27      O        0.84351    0.92430    0.49800    1.000
    O28      O        0.89807    0.97140    0.58010    1.000
    O29      O        0.85208    0.89650    0.95730    1.000
    O30      O        0.90094    0.96050    0.88780    1.000
    N21      N        0.97655    0.92960    0.04710    1.000
    N22      N        0.02529    0.93550    0.06210    1.000
    N23      N        0.00117    0.85270    0.14750    1.000
    N24      N        0.91932    0.85840    0.10590    1.000
    H52      H        0.89700    0.87630    0.07440    1.000
    H53      H        0.91300    0.82660    0.14090    1.000
    N25      N        0.08319    0.88010    0.15230    1.000
    H54      H        0.10580    0.90380    0.13350    1.000
    H55      H        0.08910    0.84980    0.19080    1.000
    Zn6      Zn       0.43511    0.49482    0.98871    1.000
    C86      C        0.46393    0.37990    0.10050    1.000
    C87      C        0.53743    0.39040    0.12090    1.000
    C88      C        0.12382    0.31180    0.71550    1.000
    C89      C        0.13892    0.35840    0.65730    1.000
    H56      H        0.11710    0.37560    0.61640    1.000
    C90      C        0.18467    0.38040    0.65710    1.000
    H57      H        0.19370    0.41110    0.61580    1.000
    C91      C        0.21787    0.35650    0.71970    1.000
    C92      C        0.20291    0.31080    0.77680    1.000
    H58      H        0.22440    0.29450    0.81890    1.000
    C93      C        0.15641    0.28700    0.77490    1.000
    H59      H        0.14770    0.25450    0.81400    1.000
    C94      C        0.07371    0.28760    0.71130    1.000
    C95      C        0.26803    0.38060    0.72270    1.000
    C96      C        0.29039    0.39510    0.64690    1.000
    H60      H        0.27490    0.38670    0.59370    1.000
    C97      C        0.33564    0.42220    0.64920    1.000
    C98      C        0.35967    0.43030    0.73060    1.000
    H61      H        0.39020    0.44760    0.73330    1.000
    C99      C        0.33866    0.41330    0.80470    1.000
    C100     C        0.29288    0.38580    0.80050    1.000
    H62      H        0.27940    0.37100    0.85100    1.000
    C101     C        0.36016    0.44020    0.56860    1.000
    C102     C        0.36551    0.42330    0.89110    1.000
    O31      O        0.06323    0.24330    0.76490    1.000
    O32      O        0.04457    0.31130    0.65960    1.000
    O33      O        0.34351    0.42430    0.49800    1.000
    O34      O        0.39807    0.47140    0.58010    1.000
    O35      O        0.35208    0.39650    0.95730    1.000
    O36      O        0.40094    0.46050    0.88780    1.000
    N26      N        0.47655    0.42960    0.04710    1.000
    N27      N        0.52529    0.43550    0.06210    1.000
    N28      N        0.50117    0.35270    0.14750    1.000
    N29      N        0.41932    0.35840    0.10590    1.000
    H63      H        0.39700    0.37630    0.07440    1.000
    H64      H        0.41300    0.32660    0.14090    1.000
    N30      N        0.58319    0.38010    0.15230    1.000
    H65      H        0.60580    0.40380    0.13350    1.000
    H66      H        0.58910    0.34980    0.19080    1.000
    Zn7      Zn       0.06489    0.99482    0.51129    1.000
    C103     C        0.03607    0.87990    0.39950    1.000
    C104     C        0.96257    0.89040    0.37910    1.000
    C105     C        0.37618    0.81180    0.78450    1.000
    C106     C        0.36108    0.85840    0.84270    1.000
    H67      H        0.38290    0.87560    0.88360    1.000
    C107     C        0.31533    0.88040    0.84290    1.000
    H68      H        0.30630    0.91110    0.88420    1.000
    C108     C        0.28213    0.85650    0.78030    1.000
    C109     C        0.29709    0.81080    0.72320    1.000
    H69      H        0.27560    0.79450    0.68110    1.000
    C110     C        0.34359    0.78700    0.72510    1.000
    H70      H        0.35230    0.75450    0.68600    1.000
    C111     C        0.42629    0.78760    0.78870    1.000
    C112     C        0.23197    0.88060    0.77730    1.000
    C113     C        0.20961    0.89510    0.85310    1.000
    H71      H        0.22510    0.88670    0.90630    1.000
    C114     C        0.16436    0.92220    0.85080    1.000
    C115     C        0.14033    0.93030    0.76940    1.000
    H72      H        0.10980    0.94760    0.76670    1.000
    C116     C        0.16134    0.91330    0.69530    1.000
    C117     C        0.20712    0.88580    0.69950    1.000
    H73      H        0.22060    0.87100    0.64900    1.000
    C118     C        0.13984    0.94020    0.93140    1.000
    C119     C        0.13449    0.92330    0.60890    1.000
    O37      O        0.43677    0.74330    0.73510    1.000
    O38      O        0.45543    0.81130    0.84040    1.000
    O39      O        0.15649    0.92430    0.00200    1.000
    O40      O        0.10193    0.97140    0.91990    1.000
    O41      O        0.14792    0.89650    0.54270    1.000
    O42      O        0.09906    0.96050    0.61220    1.000
    N31      N        0.02345    0.92960    0.45290    1.000
    N32      N        0.97471    0.93550    0.43790    1.000
    N33      N        0.99883    0.85270    0.35250    1.000
    N34      N        0.08068    0.85840    0.39410    1.000
    H74      H        0.10300    0.87630    0.42560    1.000
    H75      H        0.08700    0.82660    0.35910    1.000
    N35      N        0.91681    0.88010    0.34770    1.000
    H76      H        0.89420    0.90380    0.36650    1.000
    H77      H        0.91090    0.84980    0.30920    1.000
    Zn8      Zn       0.56489    0.49482    0.51129    1.000
    C120     C        0.53607    0.37990    0.39950    1.000
    C121     C        0.46257    0.39040    0.37910    1.000
    C122     C        0.87618    0.31180    0.78450    1.000
    C123     C        0.86108    0.35840    0.84270    1.000
    H78      H        0.88290    0.37560    0.88360    1.000
    C124     C        0.81533    0.38040    0.84290    1.000
    H79      H        0.80630    0.41110    0.88420    1.000
    C125     C        0.78213    0.35650    0.78030    1.000
    C126     C        0.79709    0.31080    0.72320    1.000
    H80      H        0.77560    0.29450    0.68110    1.000
    C127     C        0.84359    0.28700    0.72510    1.000
    H81      H        0.85230    0.25450    0.68600    1.000
    C128     C        0.92629    0.28760    0.78870    1.000
    C129     C        0.73197    0.38060    0.77730    1.000
    C130     C        0.70961    0.39510    0.85310    1.000
    H82      H        0.72510    0.38670    0.90630    1.000
    C131     C        0.66436    0.42220    0.85080    1.000
    C132     C        0.64033    0.43030    0.76940    1.000
    H83      H        0.60980    0.44760    0.76670    1.000
    C133     C        0.66134    0.41330    0.69530    1.000
    C134     C        0.70712    0.38580    0.69950    1.000
    H84      H        0.72060    0.37100    0.64900    1.000
    C135     C        0.63984    0.44020    0.93140    1.000
    C136     C        0.63449    0.42330    0.60890    1.000
    O43      O        0.93677    0.24330    0.73510    1.000
    O44      O        0.95543    0.31130    0.84040    1.000
    O45      O        0.65649    0.42430    0.00200    1.000
    O46      O        0.60193    0.47140    0.91990    1.000
    O47      O        0.64792    0.39650    0.54270    1.000
    O48      O        0.59906    0.46050    0.61220    1.000
    N36      N        0.52345    0.42960    0.45290    1.000
    N37      N        0.47471    0.43550    0.43790    1.000
    N38      N        0.49883    0.35270    0.35250    1.000
    N39      N        0.58068    0.35840    0.39410    1.000
    H85      H        0.60300    0.37630    0.42560    1.000
    H86      H        0.58700    0.32660    0.35910    1.000
    N40      N        0.41681    0.38010    0.34770    1.000
    H87      H        0.39420    0.40380    0.36650    1.000
    H88      H        0.41090    0.34980    0.30920    1.000
    Zn9      Zn       0.50000    0.29271    0.25000    1.000
    Zn10     Zn       0.00000    0.79271    0.25000    1.000
    Zn11     Zn       0.50000    0.70729    0.75000    1.000
    Zn12     Zn       0.00000    0.20729    0.75000    1.000
