# CIF file generated by openbabel 3.1.0, see https://openbabel.org
data_I
_chemical_name_common 'image0'
_cell_length_a 11.6599
_cell_length_b 10.9336
_cell_length_c 11.7669
_cell_angle_alpha 90
_cell_angle_beta 90
_cell_angle_gamma 90
_space_group_name_H-M_alt 'P 1'
_space_group_name_Hall 'P 1'
loop_
    _symmetry_equiv_pos_as_xyz
    x,y,z
loop_
    _atom_site_label
    _atom_site_type_symbol
    _atom_site_fract_x
    _atom_site_fract_y
    _atom_site_fract_z
    _atom_site_occupancy
    Mn1      Mn       0.28234    0.27214    0.31355    1.000
    Mn2      Mn       0.31784    0.74035    0.09830    1.000
    P1       P        0.21359    0.97898    0.24598    1.000
    O1       O        0.22880    0.11320    0.23850    1.000
    O2       O        0.28000    0.90680    0.16290    1.000
    O3       O        0.24560    0.92950    0.36740    1.000
    H1       H        0.22270    0.97760    0.41580    1.000
    O4       O        0.08190    0.95500    0.23070    1.000
    H2       H        0.07170    0.88410    0.21050    1.000
    O5       O        0.28110    0.35950    0.14520    1.000
    O6       O        0.31080    0.53980    0.06060    1.000
    O7       O        0.30240    0.46920    0.34830    1.000
    O8       O        0.31120    0.65050    0.26190    1.000
    O9       O        0.37520    0.77480    0.91970    1.000
    O10      O        0.53040    0.76430    0.80860    1.000
    O11      O        0.50630    0.74180    0.10310    1.000
    O12      O        0.66110    0.76010    0.99240    1.000
    C1       C        0.29990    0.47280    0.14640    1.000
    C2       C        0.30550    0.53660    0.26420    1.000
    C3       C        0.48020    0.76480    0.90160    1.000
    C4       C        0.55610    0.75460    0.00820    1.000
    Mn3      Mn       0.71766    0.72786    0.81355    1.000
    Mn4      Mn       0.68216    0.25965    0.59830    1.000
    P2       P        0.78641    0.02102    0.74598    1.000
    O13      O        0.77120    0.88680    0.73850    1.000
    O14      O        0.72000    0.09320    0.66290    1.000
    O15      O        0.75440    0.07050    0.86740    1.000
    H3       H        0.77730    0.02240    0.91580    1.000
    O16      O        0.91810    0.04500    0.73070    1.000
    H4       H        0.92830    0.11590    0.71050    1.000
    O17      O        0.71890    0.64050    0.64520    1.000
    O18      O        0.68920    0.46020    0.56060    1.000
    O19      O        0.69760    0.53080    0.84830    1.000
    O20      O        0.68880    0.34950    0.76190    1.000
    O21      O        0.62480    0.22520    0.41970    1.000
    O22      O        0.46960    0.23570    0.30860    1.000
    O23      O        0.49370    0.25820    0.60310    1.000
    O24      O        0.33890    0.23990    0.49240    1.000
    C5       C        0.70010    0.52720    0.64640    1.000
    C6       C        0.69450    0.46340    0.76420    1.000
    C7       C        0.51980    0.23520    0.40160    1.000
    C8       C        0.44390    0.24540    0.50820    1.000
    Mn5      Mn       0.78234    0.22786    0.31355    1.000
    Mn6      Mn       0.81784    0.75965    0.09830    1.000
    P3       P        0.71359    0.52102    0.24598    1.000
    O25      O        0.72880    0.38680    0.23850    1.000
    O26      O        0.78000    0.59320    0.16290    1.000
    O27      O        0.74560    0.57050    0.36740    1.000
    H5       H        0.72270    0.52240    0.41580    1.000
    O28      O        0.58190    0.54500    0.23070    1.000
    H6       H        0.57170    0.61590    0.21050    1.000
    O29      O        0.78110    0.14050    0.14520    1.000
    O30      O        0.81080    0.96020    0.06060    1.000
    O31      O        0.80240    0.03080    0.34830    1.000
    O32      O        0.81120    0.84950    0.26190    1.000
    O33      O        0.87520    0.72520    0.91970    1.000
    O34      O        0.03040    0.73570    0.80860    1.000
    O35      O        0.00630    0.75820    0.10310    1.000
    O36      O        0.16110    0.73990    0.99240    1.000
    C9       C        0.79990    0.02720    0.14640    1.000
    C10      C        0.80550    0.96340    0.26420    1.000
    C11      C        0.98020    0.73520    0.90160    1.000
    C12      C        0.05610    0.74540    0.00820    1.000
    Mn7      Mn       0.21766    0.77214    0.81355    1.000
    Mn8      Mn       0.18216    0.24035    0.59830    1.000
    P4       P        0.28641    0.47898    0.74598    1.000
    O37      O        0.27120    0.61320    0.73850    1.000
    O38      O        0.22000    0.40680    0.66290    1.000
    O39      O        0.25440    0.42950    0.86740    1.000
    H7       H        0.27730    0.47760    0.91580    1.000
    O40      O        0.41810    0.45500    0.73070    1.000
    H8       H        0.42830    0.38410    0.71050    1.000
    O41      O        0.21890    0.85950    0.64520    1.000
    O42      O        0.18920    0.03980    0.56060    1.000
    O43      O        0.19760    0.96920    0.84830    1.000
    O44      O        0.18880    0.15050    0.76190    1.000
    O45      O        0.12480    0.27480    0.41970    1.000
    O46      O        0.96960    0.26430    0.30860    1.000
    O47      O        0.99370    0.24180    0.60310    1.000
    O48      O        0.83890    0.26010    0.49240    1.000
    C13      C        0.20010    0.97280    0.64640    1.000
    C14      C        0.19450    0.03660    0.76420    1.000
    C15      C        0.01980    0.26480    0.40160    1.000
    C16      C        0.94390    0.25460    0.50820    1.000
