# CIF file generated by openbabel 3.1.0, see https://openbabel.org
data_I
_chemical_name_common 'image0'
_cell_length_a 26.122
_cell_length_b 12.7436
_cell_length_c 20.789
_cell_angle_alpha 90
_cell_angle_beta 122.125
_cell_angle_gamma 90
_space_group_name_H-M_alt 'P 1'
_space_group_name_Hall 'P 1'
loop_
    _symmetry_equiv_pos_as_xyz
    x,y,z
loop_
    _atom_site_label
    _atom_site_type_symbol
    _atom_site_fract_x
    _atom_site_fract_y
    _atom_site_fract_z
    _atom_site_occupancy
    N1       N        0.09505    0.01700    0.10510    1.000
    N2       N        0.19442    0.02540    0.17630    1.000
    N3       N        0.43900    0.79730    0.53910    1.000
    N4       N        0.48799    0.65630    0.53990    1.000
    N5       N        0.96225    0.07990    0.06410    1.000
    N6       N        0.91446    0.19320    0.09320    1.000
    C1       C        0.14670    0.98470    0.11410    1.000
    H1       H        0.14930    0.93900    0.08110    1.000
    C2       C        0.11190    0.08280    0.16420    1.000
    H2       H        0.08530    0.11850    0.17340    1.000
    C3       C        0.17290    0.08900    0.20830    1.000
    H3       H        0.19550    0.12920    0.25190    1.000
    C4       C        0.25840    0.00680    0.20300    1.000
    H4       H        0.27630    0.07110    0.19870    1.000
    H5       H        0.26130    0.95390    0.17150    1.000
    C5       C        0.29266    0.97050    0.28500    1.000
    C6       C        0.28050    0.87690    0.30540    1.000
    C7       C        0.31040    0.84240    0.37880    1.000
    C8       C        0.35640    0.90390    0.43820    1.000
    C9       C        0.36860    0.99630    0.41690    1.000
    C10      C        0.33740    0.03060    0.34270    1.000
    C11      C        0.38940    0.86930    0.52000    1.000
    H6       H        0.40530    0.93050    0.55250    1.000
    H7       H        0.36100    0.83510    0.52980    1.000
    C12      C        0.49890    0.81670    0.58460    1.000
    H8       H        0.51670    0.87910    0.60980    1.000
    C13      C        0.52750    0.72930    0.58640    1.000
    H9       H        0.56920    0.72000    0.61580    1.000
    C14      C        0.43540    0.70160    0.51290    1.000
    H10      H        0.39890    0.66930    0.47840    1.000
    C15      C        0.95430    0.03770    0.11730    1.000
    H11      H        0.96700    0.97090    0.13780    1.000
    C16      C        0.92470    0.10730    0.13740    1.000
    H12      H        0.91400    0.09760    0.17310    1.000
    C17      C        0.93720    0.17400    0.05100    1.000
    H13      H        0.93570    0.22120    0.01600    1.000
    C18      C        0.88090    0.28700    0.09000    1.000
    H14      H        0.89050    0.34410    0.06730    1.000
    H15      H        0.89320    0.30780    0.14110    1.000
    C19      C        0.81280    0.26760    0.04370    1.000
    C20      C        0.78080    0.25160    0.07700    1.000
    C21      C        0.78120    0.26640    0.96630    1.000
    F1       F        0.80861    0.25180    0.15282    1.000
    F2       F        0.81041    0.28100    0.92874    1.000
    F3       F        0.35063    0.12460    0.32708    1.000
    F4       F        0.41146    0.05810    0.47042    1.000
    F5       F        0.29673    0.75050    0.39640    1.000
    F6       F        0.23807    0.81310    0.25170    1.000
    N7       N        0.59505    0.51700    0.10510    1.000
    N8       N        0.69442    0.52540    0.17630    1.000
    N9       N        0.93900    0.29730    0.53910    1.000
    N10      N        0.98799    0.15630    0.53990    1.000
    N11      N        0.46225    0.57990    0.06410    1.000
    N12      N        0.41446    0.69320    0.09320    1.000
    C22      C        0.64670    0.48470    0.11410    1.000
    H16      H        0.64930    0.43900    0.08110    1.000
    C23      C        0.61190    0.58280    0.16420    1.000
    H17      H        0.58530    0.61850    0.17340    1.000
    C24      C        0.67290    0.58900    0.20830    1.000
    H18      H        0.69550    0.62920    0.25190    1.000
    C25      C        0.75840    0.50680    0.20300    1.000
    H19      H        0.77630    0.57110    0.19870    1.000
    H20      H        0.76130    0.45390    0.17150    1.000
    C26      C        0.79266    0.47050    0.28500    1.000
    C27      C        0.78050    0.37690    0.30540    1.000
    C28      C        0.81040    0.34240    0.37880    1.000
    C29      C        0.85640    0.40390    0.43820    1.000
    C30      C        0.86860    0.49630    0.41690    1.000
    C31      C        0.83740    0.53060    0.34270    1.000
    C32      C        0.88940    0.36930    0.52000    1.000
    H21      H        0.90530    0.43050    0.55250    1.000
    H22      H        0.86100    0.33510    0.52980    1.000
    C33      C        0.99890    0.31670    0.58460    1.000
    H23      H        0.01670    0.37910    0.60980    1.000
    C34      C        0.02750    0.22930    0.58640    1.000
    H24      H        0.06920    0.22000    0.61580    1.000
    C35      C        0.93540    0.20160    0.51290    1.000
    H25      H        0.89890    0.16930    0.47840    1.000
    C36      C        0.45430    0.53770    0.11730    1.000
    H26      H        0.46700    0.47090    0.13780    1.000
    C37      C        0.42470    0.60730    0.13740    1.000
    H27      H        0.41400    0.59760    0.17310    1.000
    C38      C        0.43720    0.67400    0.05100    1.000
    H28      H        0.43570    0.72120    0.01600    1.000
    C39      C        0.38090    0.78700    0.09000    1.000
    H29      H        0.39050    0.84410    0.06730    1.000
    H30      H        0.39320    0.80780    0.14110    1.000
    C40      C        0.31280    0.76760    0.04370    1.000
    C41      C        0.28080    0.75160    0.07700    1.000
    C42      C        0.28120    0.76640    0.96630    1.000
    F7       F        0.30861    0.75180    0.15282    1.000
    F8       F        0.31041    0.78100    0.92874    1.000
    F9       F        0.85063    0.62460    0.32708    1.000
    F10      F        0.91146    0.55810    0.47042    1.000
    F11      F        0.79673    0.25050    0.39640    1.000
    F12      F        0.73807    0.31310    0.25170    1.000
    N13      N        0.90495    0.01700    0.39490    1.000
    N14      N        0.80558    0.02540    0.32370    1.000
    N15      N        0.56100    0.79730    0.96090    1.000
    N16      N        0.51201    0.65630    0.96010    1.000
    N17      N        0.03775    0.07990    0.43590    1.000
    N18      N        0.08554    0.19320    0.40680    1.000
    C43      C        0.85330    0.98470    0.38590    1.000
    H31      H        0.85070    0.93900    0.41890    1.000
    C44      C        0.88810    0.08280    0.33580    1.000
    H32      H        0.91470    0.11850    0.32660    1.000
    C45      C        0.82710    0.08900    0.29170    1.000
    H33      H        0.80450    0.12920    0.24810    1.000
    C46      C        0.74160    0.00680    0.29700    1.000
    H34      H        0.72370    0.07110    0.30130    1.000
    H35      H        0.73870    0.95390    0.32850    1.000
    C47      C        0.70734    0.97050    0.21500    1.000
    C48      C        0.71950    0.87690    0.19460    1.000
    C49      C        0.68960    0.84240    0.12120    1.000
    C50      C        0.64360    0.90390    0.06180    1.000
    C51      C        0.63140    0.99630    0.08310    1.000
    C52      C        0.66260    0.03060    0.15730    1.000
    C53      C        0.61060    0.86930    0.98000    1.000
    H36      H        0.59470    0.93050    0.94750    1.000
    H37      H        0.63900    0.83510    0.97020    1.000
    C54      C        0.50110    0.81670    0.91540    1.000
    H38      H        0.48330    0.87910    0.89020    1.000
    C55      C        0.47250    0.72930    0.91360    1.000
    H39      H        0.43080    0.72000    0.88420    1.000
    C56      C        0.56460    0.70160    0.98710    1.000
    H40      H        0.60110    0.66930    0.02160    1.000
    C57      C        0.04570    0.03770    0.38270    1.000
    H41      H        0.03300    0.97090    0.36220    1.000
    C58      C        0.07530    0.10730    0.36260    1.000
    H42      H        0.08600    0.09760    0.32690    1.000
    C59      C        0.06280    0.17400    0.44900    1.000
    H43      H        0.06430    0.22120    0.48400    1.000
    C60      C        0.11910    0.28700    0.41000    1.000
    H44      H        0.10950    0.34410    0.43270    1.000
    H45      H        0.10680    0.30780    0.35890    1.000
    C61      C        0.18720    0.26760    0.45630    1.000
    C62      C        0.21920    0.25160    0.42300    1.000
    C63      C        0.21880    0.26640    0.53370    1.000
    F13      F        0.19139    0.25180    0.34718    1.000
    F14      F        0.18959    0.28100    0.57126    1.000
    F15      F        0.64937    0.12460    0.17292    1.000
    F16      F        0.58854    0.05810    0.02958    1.000
    F17      F        0.70327    0.75050    0.10360    1.000
    F18      F        0.76193    0.81310    0.24830    1.000
    N19      N        0.40495    0.51700    0.39490    1.000
    N20      N        0.30558    0.52540    0.32370    1.000
    N21      N        0.06100    0.29730    0.96090    1.000
    N22      N        0.01201    0.15630    0.96010    1.000
    N23      N        0.53775    0.57990    0.43590    1.000
    N24      N        0.58554    0.69320    0.40680    1.000
    C64      C        0.35330    0.48470    0.38590    1.000
    H46      H        0.35070    0.43900    0.41890    1.000
    C65      C        0.38810    0.58280    0.33580    1.000
    H47      H        0.41470    0.61850    0.32660    1.000
    C66      C        0.32710    0.58900    0.29170    1.000
    H48      H        0.30450    0.62920    0.24810    1.000
    C67      C        0.24160    0.50680    0.29700    1.000
    H49      H        0.22370    0.57110    0.30130    1.000
    H50      H        0.23870    0.45390    0.32850    1.000
    C68      C        0.20734    0.47050    0.21500    1.000
    C69      C        0.21950    0.37690    0.19460    1.000
    C70      C        0.18960    0.34240    0.12120    1.000
    C71      C        0.14360    0.40390    0.06180    1.000
    C72      C        0.13140    0.49630    0.08310    1.000
    C73      C        0.16260    0.53060    0.15730    1.000
    C74      C        0.11060    0.36930    0.98000    1.000
    H51      H        0.09470    0.43050    0.94750    1.000
    H52      H        0.13900    0.33510    0.97020    1.000
    C75      C        0.00110    0.31670    0.91540    1.000
    H53      H        0.98330    0.37910    0.89020    1.000
    C76      C        0.97250    0.22930    0.91360    1.000
    H54      H        0.93080    0.22000    0.88420    1.000
    C77      C        0.06460    0.20160    0.98710    1.000
    H55      H        0.10110    0.16930    0.02160    1.000
    C78      C        0.54570    0.53770    0.38270    1.000
    H56      H        0.53300    0.47090    0.36220    1.000
    C79      C        0.57530    0.60730    0.36260    1.000
    H57      H        0.58600    0.59760    0.32690    1.000
    C80      C        0.56280    0.67400    0.44900    1.000
    H58      H        0.56430    0.72120    0.48400    1.000
    C81      C        0.61910    0.78700    0.41000    1.000
    H59      H        0.60950    0.84410    0.43270    1.000
    H60      H        0.60680    0.80780    0.35890    1.000
    C82      C        0.68720    0.76760    0.45630    1.000
    C83      C        0.71920    0.75160    0.42300    1.000
    C84      C        0.71880    0.76640    0.53370    1.000
    F19      F        0.69139    0.75180    0.34718    1.000
    F20      F        0.68959    0.78100    0.57126    1.000
    F21      F        0.14937    0.62460    0.17292    1.000
    F22      F        0.08854    0.55810    0.02958    1.000
    F23      F        0.20327    0.25050    0.10360    1.000
    F24      F        0.26193    0.31310    0.24830    1.000
    N25      N        0.90495    0.98300    0.89490    1.000
    N26      N        0.80558    0.97460    0.82370    1.000
    N27      N        0.56100    0.20270    0.46090    1.000
    N28      N        0.51201    0.34370    0.46010    1.000
    N29      N        0.03775    0.92010    0.93590    1.000
    N30      N        0.08554    0.80680    0.90680    1.000
    C85      C        0.85330    0.01530    0.88590    1.000
    H61      H        0.85070    0.06100    0.91890    1.000
    C86      C        0.88810    0.91720    0.83580    1.000
    H62      H        0.91470    0.88150    0.82660    1.000
    C87      C        0.82710    0.91100    0.79170    1.000
    H63      H        0.80450    0.87080    0.74810    1.000
    C88      C        0.74160    0.99320    0.79700    1.000
    H64      H        0.72370    0.92890    0.80130    1.000
    H65      H        0.73870    0.04610    0.82850    1.000
    C89      C        0.70734    0.02950    0.71500    1.000
    C90      C        0.71950    0.12310    0.69460    1.000
    C91      C        0.68960    0.15760    0.62120    1.000
    C92      C        0.64360    0.09610    0.56180    1.000
    C93      C        0.63140    0.00370    0.58310    1.000
    C94      C        0.66260    0.96940    0.65730    1.000
    C95      C        0.61060    0.13070    0.48000    1.000
    H66      H        0.59470    0.06950    0.44750    1.000
    H67      H        0.63900    0.16490    0.47020    1.000
    C96      C        0.50110    0.18330    0.41540    1.000
    H68      H        0.48330    0.12090    0.39020    1.000
    C97      C        0.47250    0.27070    0.41360    1.000
    H69      H        0.43080    0.28000    0.38420    1.000
    C98      C        0.56460    0.29840    0.48710    1.000
    H70      H        0.60110    0.33070    0.52160    1.000
    C99      C        0.04570    0.96230    0.88270    1.000
    H71      H        0.03300    0.02910    0.86220    1.000
    C100     C        0.07530    0.89270    0.86260    1.000
    H72      H        0.08600    0.90240    0.82690    1.000
    C101     C        0.06280    0.82600    0.94900    1.000
    H73      H        0.06430    0.77880    0.98400    1.000
    C102     C        0.11910    0.71300    0.91000    1.000
    H74      H        0.10950    0.65590    0.93270    1.000
    H75      H        0.10680    0.69220    0.85890    1.000
    C103     C        0.18720    0.73240    0.95630    1.000
    C104     C        0.21920    0.74840    0.92300    1.000
    C105     C        0.21880    0.73360    0.03370    1.000
    F25      F        0.19139    0.74820    0.84718    1.000
    F26      F        0.18959    0.71900    0.07126    1.000
    F27      F        0.64937    0.87540    0.67292    1.000
    F28      F        0.58854    0.94190    0.52958    1.000
    F29      F        0.70327    0.24950    0.60360    1.000
    F30      F        0.76193    0.18690    0.74830    1.000
    N31      N        0.40495    0.48300    0.89490    1.000
    N32      N        0.30558    0.47460    0.82370    1.000
    N33      N        0.06100    0.70270    0.46090    1.000
    N34      N        0.01201    0.84370    0.46010    1.000
    N35      N        0.53775    0.42010    0.93590    1.000
    N36      N        0.58554    0.30680    0.90680    1.000
    C106     C        0.35330    0.51530    0.88590    1.000
    H76      H        0.35070    0.56100    0.91890    1.000
    C107     C        0.38810    0.41720    0.83580    1.000
    H77      H        0.41470    0.38150    0.82660    1.000
    C108     C        0.32710    0.41100    0.79170    1.000
    H78      H        0.30450    0.37080    0.74810    1.000
    C109     C        0.24160    0.49320    0.79700    1.000
    H79      H        0.22370    0.42890    0.80130    1.000
    H80      H        0.23870    0.54610    0.82850    1.000
    C110     C        0.20734    0.52950    0.71500    1.000
    C111     C        0.21950    0.62310    0.69460    1.000
    C112     C        0.18960    0.65760    0.62120    1.000
    C113     C        0.14360    0.59610    0.56180    1.000
    C114     C        0.13140    0.50370    0.58310    1.000
    C115     C        0.16260    0.46940    0.65730    1.000
    C116     C        0.11060    0.63070    0.48000    1.000
    H81      H        0.09470    0.56950    0.44750    1.000
    H82      H        0.13900    0.66490    0.47020    1.000
    C117     C        0.00110    0.68330    0.41540    1.000
    H83      H        0.98330    0.62090    0.39020    1.000
    C118     C        0.97250    0.77070    0.41360    1.000
    H84      H        0.93080    0.78000    0.38420    1.000
    C119     C        0.06460    0.79840    0.48710    1.000
    H85      H        0.10110    0.83070    0.52160    1.000
    C120     C        0.54570    0.46230    0.88270    1.000
    H86      H        0.53300    0.52910    0.86220    1.000
    C121     C        0.57530    0.39270    0.86260    1.000
    H87      H        0.58600    0.40240    0.82690    1.000
    C122     C        0.56280    0.32600    0.94900    1.000
    H88      H        0.56430    0.27880    0.98400    1.000
    C123     C        0.61910    0.21300    0.91000    1.000
    H89      H        0.60950    0.15590    0.93270    1.000
    H90      H        0.60680    0.19220    0.85890    1.000
    C124     C        0.68720    0.23240    0.95630    1.000
    C125     C        0.71920    0.24840    0.92300    1.000
    C126     C        0.71880    0.23360    0.03370    1.000
    F31      F        0.69139    0.24820    0.84718    1.000
    F32      F        0.68959    0.21900    0.07126    1.000
    F33      F        0.14937    0.37540    0.67292    1.000
    F34      F        0.08854    0.44190    0.52958    1.000
    F35      F        0.20327    0.74950    0.60360    1.000
    F36      F        0.26193    0.68690    0.74830    1.000
    N37      N        0.09505    0.98300    0.60510    1.000
    N38      N        0.19442    0.97460    0.67630    1.000
    N39      N        0.43900    0.20270    0.03910    1.000
    N40      N        0.48799    0.34370    0.03990    1.000
    N41      N        0.96225    0.92010    0.56410    1.000
    N42      N        0.91446    0.80680    0.59320    1.000
    C127     C        0.14670    0.01530    0.61410    1.000
    H91      H        0.14930    0.06100    0.58110    1.000
    C128     C        0.11190    0.91720    0.66420    1.000
    H92      H        0.08530    0.88150    0.67340    1.000
    C129     C        0.17290    0.91100    0.70830    1.000
    H93      H        0.19550    0.87080    0.75190    1.000
    C130     C        0.25840    0.99320    0.70300    1.000
    H94      H        0.27630    0.92890    0.69870    1.000
    H95      H        0.26130    0.04610    0.67150    1.000
    C131     C        0.29266    0.02950    0.78500    1.000
    C132     C        0.28050    0.12310    0.80540    1.000
    C133     C        0.31040    0.15760    0.87880    1.000
    C134     C        0.35640    0.09610    0.93820    1.000
    C135     C        0.36860    0.00370    0.91690    1.000
    C136     C        0.33740    0.96940    0.84270    1.000
    C137     C        0.38940    0.13070    0.02000    1.000
    H96      H        0.40530    0.06950    0.05250    1.000
    H97      H        0.36100    0.16490    0.02980    1.000
    C138     C        0.49890    0.18330    0.08460    1.000
    H98      H        0.51670    0.12090    0.10980    1.000
    C139     C        0.52750    0.27070    0.08640    1.000
    H99      H        0.56920    0.28000    0.11580    1.000
    C140     C        0.43540    0.29840    0.01290    1.000
    H100     H        0.39890    0.33070    0.97840    1.000
    C141     C        0.95430    0.96230    0.61730    1.000
    H101     H        0.96700    0.02910    0.63780    1.000
    C142     C        0.92470    0.89270    0.63740    1.000
    H102     H        0.91400    0.90240    0.67310    1.000
    C143     C        0.93720    0.82600    0.55100    1.000
    H103     H        0.93570    0.77880    0.51600    1.000
    C144     C        0.88090    0.71300    0.59000    1.000
    H104     H        0.89050    0.65590    0.56730    1.000
    H105     H        0.89320    0.69220    0.64110    1.000
    C145     C        0.81280    0.73240    0.54370    1.000
    C146     C        0.78080    0.74840    0.57700    1.000
    C147     C        0.78120    0.73360    0.46630    1.000
    F37      F        0.80861    0.74820    0.65282    1.000
    F38      F        0.81041    0.71900    0.42874    1.000
    F39      F        0.35063    0.87540    0.82708    1.000
    F40      F        0.41146    0.94190    0.97042    1.000
    F41      F        0.29673    0.24950    0.89640    1.000
    F42      F        0.23807    0.18690    0.75170    1.000
    N43      N        0.59505    0.48300    0.60510    1.000
    N44      N        0.69442    0.47460    0.67630    1.000
    N45      N        0.93900    0.70270    0.03910    1.000
    N46      N        0.98799    0.84370    0.03990    1.000
    N47      N        0.46225    0.42010    0.56410    1.000
    N48      N        0.41446    0.30680    0.59320    1.000
    C148     C        0.64670    0.51530    0.61410    1.000
    H106     H        0.64930    0.56100    0.58110    1.000
    C149     C        0.61190    0.41720    0.66420    1.000
    H107     H        0.58530    0.38150    0.67340    1.000
    C150     C        0.67290    0.41100    0.70830    1.000
    H108     H        0.69550    0.37080    0.75190    1.000
    C151     C        0.75840    0.49320    0.70300    1.000
    H109     H        0.77630    0.42890    0.69870    1.000
    H110     H        0.76130    0.54610    0.67150    1.000
    C152     C        0.79266    0.52950    0.78500    1.000
    C153     C        0.78050    0.62310    0.80540    1.000
    C154     C        0.81040    0.65760    0.87880    1.000
    C155     C        0.85640    0.59610    0.93820    1.000
    C156     C        0.86860    0.50370    0.91690    1.000
    C157     C        0.83740    0.46940    0.84270    1.000
    C158     C        0.88940    0.63070    0.02000    1.000
    H111     H        0.90530    0.56950    0.05250    1.000
    H112     H        0.86100    0.66490    0.02980    1.000
    C159     C        0.99890    0.68330    0.08460    1.000
    H113     H        0.01670    0.62090    0.10980    1.000
    C160     C        0.02750    0.77070    0.08640    1.000
    H114     H        0.06920    0.78000    0.11580    1.000
    C161     C        0.93540    0.79840    0.01290    1.000
    H115     H        0.89890    0.83070    0.97840    1.000
    C162     C        0.45430    0.46230    0.61730    1.000
    H116     H        0.46700    0.52910    0.63780    1.000
    C163     C        0.42470    0.39270    0.63740    1.000
    H117     H        0.41400    0.40240    0.67310    1.000
    C164     C        0.43720    0.32600    0.55100    1.000
    H118     H        0.43570    0.27880    0.51600    1.000
    C165     C        0.38090    0.21300    0.59000    1.000
    H119     H        0.39050    0.15590    0.56730    1.000
    H120     H        0.39320    0.19220    0.64110    1.000
    C166     C        0.31280    0.23240    0.54370    1.000
    C167     C        0.28080    0.24840    0.57700    1.000
    C168     C        0.28120    0.23360    0.46630    1.000
    F43      F        0.30861    0.24820    0.65282    1.000
    F44      F        0.31041    0.21900    0.42874    1.000
    F45      F        0.85063    0.37540    0.82708    1.000
    F46      F        0.91146    0.44190    0.97042    1.000
    F47      F        0.79673    0.74950    0.89640    1.000
    F48      F        0.73807    0.68690    0.75170    1.000
    Mn1      Mn       0.00000    0.00000    0.00000    1.000
    Mn2      Mn       0.50000    0.50000    0.00000    1.000
    Mn3      Mn       0.00000    0.00000    0.50000    1.000
    Mn4      Mn       0.50000    0.50000    0.50000    1.000
