# CIF file generated by openbabel 3.1.0, see https://openbabel.org
data_I
_chemical_name_common 'CAZNUO_charged'
_cell_length_a 14.825
_cell_length_b 16.6722
_cell_length_c 16.6722
_cell_angle_alpha 118.835
_cell_angle_beta 96.3173
_cell_angle_gamma 96.3173
_space_group_name_H-M_alt 'P 1'
_space_group_name_Hall 'P 1'
loop_
    _symmetry_equiv_pos_as_xyz
    x,y,z
loop_
    _atom_site_label
    _atom_site_type_symbol
    _atom_site_fract_x
    _atom_site_fract_y
    _atom_site_fract_z
    _atom_site_occupancy
    Co1      Co       0.00939    0.01089    0.20095    1.000
    Co2      Co       0.99061    0.79905    0.98911    1.000
    Co3      Co       0.00000    0.80203    0.19797    1.000
    H1       H        0.72200    0.15460    0.69520    1.000
    H2       H        0.64710    0.14650    0.61550    1.000
    H3       H        0.45530    0.03850    0.66310    1.000
    H4       H        0.51110    0.98960    0.58280    1.000
    H5       H        0.56160    0.23320    0.73840    1.000
    H6       H        0.63000    0.23180    0.81640    1.000
    H7       H        0.62920    0.98840    0.69980    1.000
    H8       H        0.56520    0.03560    0.77240    1.000
    H9       H        0.35810    0.94230    0.51410    1.000
    H10      H        0.70350    0.93170    0.76570    1.000
    H11      H        0.77230    0.17840    0.97980    1.000
    H12      H        0.77250    0.14400    0.54620    1.000
    H13      H        0.84570    0.10600    0.42440    1.000
    H14      H        0.80030    0.84240    0.35860    1.000
    H15      H        0.71070    0.87390    0.47130    1.000
    H16      H        0.99860    0.83540    0.39700    1.000
    H17      H        0.99630    0.75710    0.47670    1.000
    H18      H        0.26270    0.13900    0.41880    1.000
    H19      H        0.39840    0.18500    0.52140    1.000
    H20      H        0.21690    0.90110    0.41830    1.000
    H21      H        0.98870    0.83180    0.82300    1.000
    H22      H        0.99230    0.75410    0.66630    1.000
    H23      H        0.98630    0.51820    0.67500    1.000
    H24      H        0.98030    0.59920    0.82820    1.000
    H25      H        0.84160    0.12200    0.06360    1.000
    H26      H        0.79870    0.87730    0.84330    1.000
    H27      H        0.27800    0.30480    0.84540    1.000
    H28      H        0.35290    0.38450    0.85350    1.000
    H29      H        0.54470    0.33690    0.96150    1.000
    H30      H        0.48890    0.41720    0.01040    1.000
    H31      H        0.43840    0.26160    0.76680    1.000
    H32      H        0.37000    0.18360    0.76820    1.000
    H33      H        0.37080    0.30020    0.01160    1.000
    H34      H        0.43480    0.22760    0.96440    1.000
    H35      H        0.64190    0.48590    0.05770    1.000
    H36      H        0.29650    0.23430    0.06830    1.000
    H37      H        0.22770    0.02020    0.82160    1.000
    H38      H        0.22750    0.45380    0.85600    1.000
    H39      H        0.15430    0.57560    0.89400    1.000
    H40      H        0.19970    0.64140    0.15760    1.000
    H41      H        0.28930    0.52870    0.12610    1.000
    H42      H        0.00140    0.60300    0.16460    1.000
    H43      H        0.00370    0.52330    0.24290    1.000
    H44      H        0.73730    0.58120    0.86100    1.000
    H45      H        0.60160    0.47860    0.81500    1.000
    H46      H        0.78310    0.58170    0.09890    1.000
    H47      H        0.01130    0.17700    0.16820    1.000
    H48      H        0.00770    0.33370    0.24590    1.000
    H49      H        0.01370    0.32500    0.48180    1.000
    H50      H        0.01970    0.17180    0.40080    1.000
    H51      H        0.15840    0.93640    0.87800    1.000
    H52      H        0.20130    0.15670    0.12270    1.000
    C1       C        0.59020    0.10250    0.69850    1.000
    C2       C        0.66620    0.11640    0.65000    1.000
    C3       C        0.50200    0.04940    0.63120    1.000
    C4       C        0.57460    0.19800    0.76920    1.000
    C5       C        0.61570    0.04760    0.74500    1.000
    C6       C        0.38850    0.06930    0.53070    1.000
    C7       C        0.33740    0.98360    0.49700    1.000
    C8       C        0.73620    0.06100    0.86240    1.000
    C9       C        0.73760    0.97300    0.82500    1.000
    C10      C        0.77500    0.11530    0.95090    1.000
    C11      C        0.73170    0.01400    0.52100    1.000
    C12      C        0.77500    0.08190    0.50650    1.000
    C13      C        0.82060    0.05970    0.43590    1.000
    C14      C        0.83090    0.96950    0.38030    1.000
    C15      C        0.79190    0.90320    0.39540    1.000
    C16      C        0.73970    0.92160    0.46360    1.000
    C17      C        0.99890    0.77170    0.36550    1.000
    C18      C        0.99820    0.72520    0.41340    1.000
    C19      C        0.99630    0.57770    0.55410    1.000
    C20      C        0.13920    0.98060    0.33320    1.000
    C21      C        0.22630    0.01310    0.40470    1.000
    C22      C        0.28130    0.09900    0.43880    1.000
    C23      C        0.36190    0.12710    0.50030    1.000
    C24      C        0.25450    0.95790    0.43710    1.000
    C25      C        0.98830    0.76810    0.79270    1.000
    C26      C        0.99110    0.72180    0.69880    1.000
    C27      C        0.99220    0.62790    0.65330    1.000
    C28      C        0.98730    0.58200    0.70380    1.000
    C29      C        0.98370    0.63120    0.79540    1.000
    C30      C        0.88080    0.95460    0.01460    1.000
    C31      C        0.88370    0.94360    0.30240    1.000
    C32      C        0.82930    0.99320    0.96220    1.000
    C33      C        0.81840    0.08190    0.00050    1.000
    C34      C        0.79090    0.93910    0.87410    1.000
    C35      C        0.40980    0.30150    0.89750    1.000
    C36      C        0.33380    0.35000    0.88360    1.000
    C37      C        0.49800    0.36880    0.95060    1.000
    C38      C        0.42540    0.23080    0.80200    1.000
    C39      C        0.38430    0.25500    0.95240    1.000
    C40      C        0.61150    0.46930    0.93070    1.000
    C41      C        0.66260    0.50300    0.01640    1.000
    C42      C        0.26380    0.13760    0.93900    1.000
    C43      C        0.26240    0.17500    0.02700    1.000
    C44      C        0.22500    0.04910    0.88470    1.000
    C45      C        0.26830    0.47900    0.98600    1.000
    C46      C        0.22500    0.49350    0.91810    1.000
    C47      C        0.17940    0.56410    0.94030    1.000
    C48      C        0.16910    0.61970    0.03050    1.000
    C49      C        0.20810    0.60460    0.09680    1.000
    C50      C        0.26030    0.53640    0.07840    1.000
    C51      C        0.00110    0.63450    0.22830    1.000
    C52      C        0.00180    0.58660    0.27480    1.000
    C53      C        0.00370    0.44590    0.42230    1.000
    C54      C        0.86080    0.66680    0.01940    1.000
    C55      C        0.77370    0.59530    0.98690    1.000
    C56      C        0.71870    0.56120    0.90100    1.000
    C57      C        0.63810    0.49970    0.87290    1.000
    C58      C        0.74550    0.56290    0.04210    1.000
    C59      C        0.01170    0.20730    0.23190    1.000
    C60      C        0.00890    0.30120    0.27820    1.000
    C61      C        0.00780    0.34670    0.37210    1.000
    C62      C        0.01270    0.29620    0.41800    1.000
    C63      C        0.01630    0.20460    0.36880    1.000
    C64      C        0.11920    0.98540    0.04540    1.000
    C65      C        0.11630    0.69760    0.05640    1.000
    C66      C        0.17070    0.03780    0.00680    1.000
    C67      C        0.18160    0.99950    0.91810    1.000
    C68      C        0.20910    0.12590    0.06090    1.000
    C69      C        0.00000    0.63090    0.36910    1.000
    C70      C        0.00000    0.58030    0.41970    1.000
    N1       N        0.99670    0.62760    0.51060    1.000
    N2       N        0.98490    0.72340    0.84200    1.000
    N3       N        0.00330    0.48940    0.37240    1.000
    N4       N        0.01510    0.15800    0.27660    1.000
    N5       N        0.00000    0.72800    0.27200    1.000
    N6       N        0.00000    0.48730    0.51270    1.000
    O1       O        0.47310    0.10240    0.59140    1.000
    O2       O        0.69620    0.10320    0.81620    1.000
    O3       O        0.68150    0.02630    0.58910    1.000
    O4       O        0.09320    0.90522    0.31298    1.000
    O5       O        0.12050    0.03187    0.30133    1.000
    O6       O        0.91590    0.00653    0.28567    1.000
    O7       O        0.89310    0.86120    0.25940    1.000
    O8       O        0.90420    0.00680    0.10000    1.000
    O9       O        0.89720    0.87580    0.96840    1.000
    O10      O        0.52690    0.40860    0.89760    1.000
    O11      O        0.30380    0.18380    0.89680    1.000
    O12      O        0.31850    0.41090    0.97370    1.000
    O13      O        0.90680    0.68702    0.09478    1.000
    O14      O        0.87950    0.69867    0.96813    1.000
    O15      O        0.08410    0.71433    0.99347    1.000
    O16      O        0.10690    0.74060    0.13880    1.000
    O17      O        0.09580    0.90000    0.99320    1.000
    O18      O        0.10280    0.03160    0.12420    1.000
    O19      O        0.00000    0.87220    0.12780    1.000
    O20      O        0.50000    0.18860    0.81140    1.000
