# CIF file generated by openbabel 3.1.0, see https://openbabel.org
data_I
_chemical_name_common 'image0'
_cell_length_a 9.7558
_cell_length_b 10.5549
_cell_length_c 16.5111
_cell_angle_alpha 90
_cell_angle_beta 112.447
_cell_angle_gamma 90
_space_group_name_H-M_alt 'P 1'
_space_group_name_Hall 'P 1'
loop_
    _symmetry_equiv_pos_as_xyz
    x,y,z
loop_
    _atom_site_label
    _atom_site_type_symbol
    _atom_site_fract_x
    _atom_site_fract_y
    _atom_site_fract_z
    _atom_site_occupancy
    C1       C        0.67860    0.05100    0.97090    1.000
    H1       H        0.60740    0.10640    0.93460    1.000
    C2       C        0.64620    0.92480    0.97200    1.000
    H2       H        0.55340    0.89440    0.93600    1.000
    C3       C        0.74950    0.84410    0.02580    1.000
    H3       H        0.72750    0.75860    0.02710    1.000
    C4       C        0.88740    0.89020    0.07840    1.000
    H4       H        0.95820    0.83520    0.11530    1.000
    C5       C        0.92110    0.01650    0.07680    1.000
    C6       C        0.06700    0.07240    0.12920    1.000
    H5       H        0.09040    0.13640    0.09430    1.000
    H6       H        0.14210    0.00680    0.14260    1.000
    C7       C        0.92830    0.96730    0.46810    1.000
    C8       C        0.51770    0.94010    0.52840    1.000
    Eu1      Eu       0.17947    0.88824    0.39335    1.000
    N1       N        0.81440    0.09470    0.02270    1.000
    O1       O        0.06020    0.04070    0.28972    1.000
    O2       O        0.23460    0.20430    0.27020    1.000
    H7       H        0.28620    0.16430    0.31380    1.000
    O3       O        0.96090    0.24570    0.21039    1.000
    O4       O        0.84400    0.21660    0.01780    1.000
    O5       O        0.81420    0.98040    0.48470    1.000
    O6       O        0.93820    0.90920    0.40540    1.000
    O7       O        0.42650    0.85180    0.50680    1.000
    O8       O        0.63950    0.94080    0.59289    1.000
    P1       P        0.07484    0.14356    0.23056    1.000
    C9       C        0.32140    0.55100    0.52910    1.000
    H8       H        0.39260    0.60640    0.56540    1.000
    C10      C        0.35380    0.42480    0.52800    1.000
    H9       H        0.44660    0.39440    0.56400    1.000
    C11      C        0.25050    0.34410    0.47420    1.000
    H10      H        0.27250    0.25860    0.47290    1.000
    C12      C        0.11260    0.39020    0.42160    1.000
    H11      H        0.04180    0.33520    0.38470    1.000
    C13      C        0.07890    0.51650    0.42320    1.000
    C14      C        0.93300    0.57240    0.37080    1.000
    H12      H        0.90960    0.63640    0.40570    1.000
    H13      H        0.85790    0.50680    0.35740    1.000
    C15      C        0.07170    0.46730    0.03190    1.000
    C16      C        0.48230    0.44010    0.97160    1.000
    Eu2      Eu       0.82053    0.38824    0.10665    1.000
    N2       N        0.18560    0.59470    0.47730    1.000
    O9       O        0.93980    0.54070    0.21028    1.000
    O10      O        0.76540    0.70430    0.22980    1.000
    H14      H        0.71380    0.66430    0.18620    1.000
    O11      O        0.03910    0.74570    0.28961    1.000
    O12      O        0.15600    0.71660    0.48220    1.000
    O13      O        0.18580    0.48040    0.01530    1.000
    O14      O        0.06180    0.40920    0.09460    1.000
    O15      O        0.57350    0.35180    0.99320    1.000
    O16      O        0.36050    0.44080    0.90711    1.000
    P2       P        0.92516    0.64356    0.26944    1.000
    C17      C        0.32140    0.94900    0.02910    1.000
    H15      H        0.39260    0.89360    0.06540    1.000
    C18      C        0.35380    0.07520    0.02800    1.000
    H16      H        0.44660    0.10560    0.06400    1.000
    C19      C        0.25050    0.15590    0.97420    1.000
    H17      H        0.27250    0.24140    0.97290    1.000
    C20      C        0.11260    0.10980    0.92160    1.000
    H18      H        0.04180    0.16480    0.88470    1.000
    C21      C        0.07890    0.98350    0.92320    1.000
    C22      C        0.93300    0.92760    0.87080    1.000
    H19      H        0.90960    0.86360    0.90570    1.000
    H20      H        0.85790    0.99320    0.85740    1.000
    C23      C        0.07170    0.03270    0.53190    1.000
    C24      C        0.48230    0.05990    0.47160    1.000
    Eu3      Eu       0.82053    0.11176    0.60665    1.000
    N3       N        0.18560    0.90530    0.97730    1.000
    O17      O        0.93980    0.95930    0.71028    1.000
    O18      O        0.76540    0.79570    0.72980    1.000
    H21      H        0.71380    0.83570    0.68620    1.000
    O19      O        0.03910    0.75430    0.78961    1.000
    O20      O        0.15600    0.78340    0.98220    1.000
    O21      O        0.18580    0.01960    0.51530    1.000
    O22      O        0.06180    0.09080    0.59460    1.000
    O23      O        0.57350    0.14820    0.49320    1.000
    O24      O        0.36050    0.05920    0.40711    1.000
    P3       P        0.92516    0.85644    0.76944    1.000
    C25      C        0.67860    0.44900    0.47090    1.000
    H22      H        0.60740    0.39360    0.43460    1.000
    C26      C        0.64620    0.57520    0.47200    1.000
    H23      H        0.55340    0.60560    0.43600    1.000
    C27      C        0.74950    0.65590    0.52580    1.000
    H24      H        0.72750    0.74140    0.52710    1.000
    C28      C        0.88740    0.60980    0.57840    1.000
    H25      H        0.95820    0.66480    0.61530    1.000
    C29      C        0.92110    0.48350    0.57680    1.000
    C30      C        0.06700    0.42760    0.62920    1.000
    H26      H        0.09040    0.36360    0.59430    1.000
    H27      H        0.14210    0.49320    0.64260    1.000
    C31      C        0.92830    0.53270    0.96810    1.000
    C32      C        0.51770    0.55990    0.02840    1.000
    Eu4      Eu       0.17947    0.61176    0.89335    1.000
    N4       N        0.81440    0.40530    0.52270    1.000
    O25      O        0.06020    0.45930    0.78972    1.000
    O26      O        0.23460    0.29570    0.77020    1.000
    H28      H        0.28620    0.33570    0.81380    1.000
    O27      O        0.96090    0.25430    0.71039    1.000
    O28      O        0.84400    0.28340    0.51780    1.000
    O29      O        0.81420    0.51960    0.98470    1.000
    O30      O        0.93820    0.59080    0.90540    1.000
    O31      O        0.42650    0.64820    0.00680    1.000
    O32      O        0.63950    0.55920    0.09289    1.000
    P4       P        0.07484    0.35644    0.73056    1.000
