# CIF file generated by openbabel 3.1.0, see https://openbabel.org
data_I
_chemical_name_common 'image0'
_cell_length_a 20.57
_cell_length_b 9.901
_cell_length_c 27.211
_cell_angle_alpha 90
_cell_angle_beta 108.526
_cell_angle_gamma 90
_space_group_name_H-M_alt 'P 1'
_space_group_name_Hall 'P 1'
loop_
    _symmetry_equiv_pos_as_xyz
    x,y,z
loop_
    _atom_site_label
    _atom_site_type_symbol
    _atom_site_fract_x
    _atom_site_fract_y
    _atom_site_fract_z
    _atom_site_occupancy
    Co1      Co       0.13610    0.55592    0.17428    1.000
    O1       O        0.04672    0.68749    0.16198    1.000
    O2       O        0.14398    0.78787    0.16952    1.000
    O3       O        0.05904    0.40961    0.16669    1.000
    O4       O        0.15603    0.29903    0.18086    1.000
    N1       N        0.74673    0.06251    0.18840    1.000
    N2       N        0.14946    0.56574    0.25629    1.000
    N3       N        0.12319    0.46750    0.59299    1.000
    C1       C        0.95285    0.05480    0.17935    1.000
    C2       C        0.98375    0.93160    0.17466    1.000
    H1       H        0.95980    0.84960    0.17480    1.000
    C3       C        0.04935    0.92750    0.16979    1.000
    C4       C        0.08520    0.04710    0.17027    1.000
    H2       H        0.13030    0.04420    0.16800    1.000
    C5       C        0.05505    0.17110    0.17406    1.000
    C6       C        0.98921    0.17420    0.17883    1.000
    H3       H        0.96890    0.25860    0.18180    1.000
    C7       C        0.78748    0.95460    0.20378    1.000
    H4       H        0.76980    0.87850    0.21660    1.000
    C8       C        0.85429    0.94800    0.20196    1.000
    H5       H        0.88060    0.86820    0.21280    1.000
    C9       C        0.88266    0.05880    0.18414    1.000
    C10      C        0.84104    0.17260    0.17031    1.000
    H6       H        0.85800    0.25180    0.15890    1.000
    C11      C        0.77482    0.17090    0.17312    1.000
    H7       H        0.74790    0.25040    0.16380    1.000
    C12      C        0.15691    0.55870    0.41579    1.000
    H8       H        0.19760    0.59020    0.44100    1.000
    C13      C        0.20794    0.58830    0.29484    1.000
    H9       H        0.24850    0.60470    0.28620    1.000
    C14      C        0.21202    0.58900    0.34678    1.000
    H10      H        0.25470    0.60540    0.37270    1.000
    C15      C        0.15338    0.56550    0.36092    1.000
    C16      C        0.09198    0.54700    0.32068    1.000
    H11      H        0.05020    0.53470    0.32800    1.000
    C17      C        0.09257    0.54700    0.27011    1.000
    H12      H        0.05030    0.53290    0.24340    1.000
    C18      C        0.10677    0.51110    0.43261    1.000
    H13      H        0.06540    0.48240    0.40740    1.000
    C19      C        0.08180    0.79330    0.16645    1.000
    C20      C        0.07850    0.39500    0.55580    1.000
    H14      H        0.05060    0.33100    0.56570    1.000
    C21      C        0.07090    0.40860    0.50335    1.000
    H15      H        0.03810    0.35560    0.47840    1.000
    C22      C        0.11175    0.50060    0.48772    1.000
    C23      C        0.15697    0.57830    0.52636    1.000
    H16      H        0.18490    0.64430    0.51750    1.000
    C24      C        0.16105    0.55930    0.57750    1.000
    H17      H        0.19220    0.61360    0.60310    1.000
    C25      C        0.09319    0.30110    0.17392    1.000
    Co2      Co       0.63610    0.05592    0.17428    1.000
    O5       O        0.54672    0.18749    0.16198    1.000
    O6       O        0.64398    0.28787    0.16952    1.000
    O7       O        0.55904    0.90961    0.16669    1.000
    O8       O        0.65603    0.79903    0.18086    1.000
    N4       N        0.24673    0.56251    0.18840    1.000
    N5       N        0.64946    0.06574    0.25629    1.000
    N6       N        0.62319    0.96750    0.59299    1.000
    C26      C        0.45285    0.55480    0.17935    1.000
    C27      C        0.48375    0.43160    0.17466    1.000
    H18      H        0.45980    0.34960    0.17480    1.000
    C28      C        0.54935    0.42750    0.16979    1.000
    C29      C        0.58520    0.54710    0.17027    1.000
    H19      H        0.63030    0.54420    0.16800    1.000
    C30      C        0.55505    0.67110    0.17406    1.000
    C31      C        0.48921    0.67420    0.17883    1.000
    H20      H        0.46890    0.75860    0.18180    1.000
    C32      C        0.28748    0.45460    0.20378    1.000
    H21      H        0.26980    0.37850    0.21660    1.000
    C33      C        0.35429    0.44800    0.20196    1.000
    H22      H        0.38060    0.36820    0.21280    1.000
    C34      C        0.38266    0.55880    0.18414    1.000
    C35      C        0.34104    0.67260    0.17031    1.000
    H23      H        0.35800    0.75180    0.15890    1.000
    C36      C        0.27482    0.67090    0.17312    1.000
    H24      H        0.24790    0.75040    0.16380    1.000
    C37      C        0.65691    0.05870    0.41579    1.000
    H25      H        0.69760    0.09020    0.44100    1.000
    C38      C        0.70794    0.08830    0.29484    1.000
    H26      H        0.74850    0.10470    0.28620    1.000
    C39      C        0.71202    0.08900    0.34678    1.000
    H27      H        0.75470    0.10540    0.37270    1.000
    C40      C        0.65338    0.06550    0.36092    1.000
    C41      C        0.59198    0.04700    0.32068    1.000
    H28      H        0.55020    0.03470    0.32800    1.000
    C42      C        0.59257    0.04700    0.27011    1.000
    H29      H        0.55030    0.03290    0.24340    1.000
    C43      C        0.60677    0.01110    0.43261    1.000
    H30      H        0.56540    0.98240    0.40740    1.000
    C44      C        0.58180    0.29330    0.16645    1.000
    C45      C        0.57850    0.89500    0.55580    1.000
    H31      H        0.55060    0.83100    0.56570    1.000
    C46      C        0.57090    0.90860    0.50335    1.000
    H32      H        0.53810    0.85560    0.47840    1.000
    C47      C        0.61175    0.00060    0.48772    1.000
    C48      C        0.65697    0.07830    0.52636    1.000
    H33      H        0.68490    0.14430    0.51750    1.000
    C49      C        0.66105    0.05930    0.57750    1.000
    H34      H        0.69220    0.11360    0.60310    1.000
    C50      C        0.59319    0.80110    0.17392    1.000
    Co3      Co       0.13610    0.44408    0.67428    1.000
    O9       O        0.04672    0.31251    0.66198    1.000
    O10      O        0.14398    0.21213    0.66952    1.000
    O11      O        0.05904    0.59039    0.66669    1.000
    O12      O        0.15603    0.70097    0.68086    1.000
    N7       N        0.74673    0.93749    0.68840    1.000
    N8       N        0.14946    0.43426    0.75629    1.000
    N9       N        0.12319    0.53250    0.09299    1.000
    C51      C        0.95285    0.94520    0.67935    1.000
    C52      C        0.98375    0.06840    0.67466    1.000
    H35      H        0.95980    0.15040    0.67480    1.000
    C53      C        0.04935    0.07250    0.66979    1.000
    C54      C        0.08520    0.95290    0.67027    1.000
    H36      H        0.13030    0.95580    0.66800    1.000
    C55      C        0.05505    0.82890    0.67406    1.000
    C56      C        0.98921    0.82580    0.67883    1.000
    H37      H        0.96890    0.74140    0.68180    1.000
    C57      C        0.78748    0.04540    0.70378    1.000
    H38      H        0.76980    0.12150    0.71660    1.000
    C58      C        0.85429    0.05200    0.70196    1.000
    H39      H        0.88060    0.13180    0.71280    1.000
    C59      C        0.88266    0.94120    0.68414    1.000
    C60      C        0.84104    0.82740    0.67031    1.000
    H40      H        0.85800    0.74820    0.65890    1.000
    C61      C        0.77482    0.82910    0.67312    1.000
    H41      H        0.74790    0.74960    0.66380    1.000
    C62      C        0.15691    0.44130    0.91579    1.000
    H42      H        0.19760    0.40980    0.94100    1.000
    C63      C        0.20794    0.41170    0.79484    1.000
    H43      H        0.24850    0.39530    0.78620    1.000
    C64      C        0.21202    0.41100    0.84678    1.000
    H44      H        0.25470    0.39460    0.87270    1.000
    C65      C        0.15338    0.43450    0.86092    1.000
    C66      C        0.09198    0.45300    0.82068    1.000
    H45      H        0.05020    0.46530    0.82800    1.000
    C67      C        0.09257    0.45300    0.77011    1.000
    H46      H        0.05030    0.46710    0.74340    1.000
    C68      C        0.10677    0.48890    0.93261    1.000
    H47      H        0.06540    0.51760    0.90740    1.000
    C69      C        0.08180    0.20670    0.66645    1.000
    C70      C        0.07850    0.60500    0.05580    1.000
    H48      H        0.05060    0.66900    0.06570    1.000
    C71      C        0.07090    0.59140    0.00335    1.000
    H49      H        0.03810    0.64440    0.97840    1.000
    C72      C        0.11175    0.49940    0.98772    1.000
    C73      C        0.15697    0.42170    0.02636    1.000
    H50      H        0.18490    0.35570    0.01750    1.000
    C74      C        0.16105    0.44070    0.07750    1.000
    H51      H        0.19220    0.38640    0.10310    1.000
    C75      C        0.09319    0.69890    0.67392    1.000
    Co4      Co       0.63610    0.94408    0.67428    1.000
    O13      O        0.54672    0.81251    0.66198    1.000
    O14      O        0.64398    0.71213    0.66952    1.000
    O15      O        0.55904    0.09039    0.66669    1.000
    O16      O        0.65603    0.20097    0.68086    1.000
    N10      N        0.24673    0.43749    0.68840    1.000
    N11      N        0.64946    0.93426    0.75629    1.000
    N12      N        0.62319    0.03250    0.09299    1.000
    C76      C        0.45285    0.44520    0.67935    1.000
    C77      C        0.48375    0.56840    0.67466    1.000
    H52      H        0.45980    0.65040    0.67480    1.000
    C78      C        0.54935    0.57250    0.66979    1.000
    C79      C        0.58520    0.45290    0.67027    1.000
    H53      H        0.63030    0.45580    0.66800    1.000
    C80      C        0.55505    0.32890    0.67406    1.000
    C81      C        0.48921    0.32580    0.67883    1.000
    H54      H        0.46890    0.24140    0.68180    1.000
    C82      C        0.28748    0.54540    0.70378    1.000
    H55      H        0.26980    0.62150    0.71660    1.000
    C83      C        0.35429    0.55200    0.70196    1.000
    H56      H        0.38060    0.63180    0.71280    1.000
    C84      C        0.38266    0.44120    0.68414    1.000
    C85      C        0.34104    0.32740    0.67031    1.000
    H57      H        0.35800    0.24820    0.65890    1.000
    C86      C        0.27482    0.32910    0.67312    1.000
    H58      H        0.24790    0.24960    0.66380    1.000
    C87      C        0.65691    0.94130    0.91579    1.000
    H59      H        0.69760    0.90980    0.94100    1.000
    C88      C        0.70794    0.91170    0.79484    1.000
    H60      H        0.74850    0.89530    0.78620    1.000
    C89      C        0.71202    0.91100    0.84678    1.000
    H61      H        0.75470    0.89460    0.87270    1.000
    C90      C        0.65338    0.93450    0.86092    1.000
    C91      C        0.59198    0.95300    0.82068    1.000
    H62      H        0.55020    0.96530    0.82800    1.000
    C92      C        0.59257    0.95300    0.77011    1.000
    H63      H        0.55030    0.96710    0.74340    1.000
    C93      C        0.60677    0.98890    0.93261    1.000
    H64      H        0.56540    0.01760    0.90740    1.000
    C94      C        0.58180    0.70670    0.66645    1.000
    C95      C        0.57850    0.10500    0.05580    1.000
    H65      H        0.55060    0.16900    0.06570    1.000
    C96      C        0.57090    0.09140    0.00335    1.000
    H66      H        0.53810    0.14440    0.97840    1.000
    C97      C        0.61175    0.99940    0.98772    1.000
    C98      C        0.65697    0.92170    0.02636    1.000
    H67      H        0.68490    0.85570    0.01750    1.000
    C99      C        0.66105    0.94070    0.07750    1.000
    H68      H        0.69220    0.88640    0.10310    1.000
    C100     C        0.59319    0.19890    0.67392    1.000
    Co5      Co       0.86390    0.55592    0.32572    1.000
    O17      O        0.95328    0.68749    0.33802    1.000
    O18      O        0.85602    0.78787    0.33048    1.000
    O19      O        0.94096    0.40961    0.33331    1.000
    O20      O        0.84397    0.29903    0.31914    1.000
    N13      N        0.25327    0.06251    0.31160    1.000
    N14      N        0.85054    0.56574    0.24371    1.000
    N15      N        0.87681    0.46750    0.90701    1.000
    C101     C        0.04715    0.05480    0.32065    1.000
    C102     C        0.01625    0.93160    0.32534    1.000
    H69      H        0.04020    0.84960    0.32520    1.000
    C103     C        0.95065    0.92750    0.33021    1.000
    C104     C        0.91480    0.04710    0.32973    1.000
    H70      H        0.86970    0.04420    0.33200    1.000
    C105     C        0.94495    0.17110    0.32594    1.000
    C106     C        0.01079    0.17420    0.32117    1.000
    H71      H        0.03110    0.25860    0.31820    1.000
    C107     C        0.21252    0.95460    0.29622    1.000
    H72      H        0.23020    0.87850    0.28340    1.000
    C108     C        0.14571    0.94800    0.29804    1.000
    H73      H        0.11940    0.86820    0.28720    1.000
    C109     C        0.11734    0.05880    0.31586    1.000
    C110     C        0.15896    0.17260    0.32969    1.000
    H74      H        0.14200    0.25180    0.34110    1.000
    C111     C        0.22518    0.17090    0.32688    1.000
    H75      H        0.25210    0.25040    0.33620    1.000
    C112     C        0.84309    0.55870    0.08421    1.000
    H76      H        0.80240    0.59020    0.05900    1.000
    C113     C        0.79206    0.58830    0.20516    1.000
    H77      H        0.75150    0.60470    0.21380    1.000
    C114     C        0.78798    0.58900    0.15322    1.000
    H78      H        0.74530    0.60540    0.12730    1.000
    C115     C        0.84662    0.56550    0.13908    1.000
    C116     C        0.90802    0.54700    0.17932    1.000
    H79      H        0.94980    0.53470    0.17200    1.000
    C117     C        0.90743    0.54700    0.22989    1.000
    H80      H        0.94970    0.53290    0.25660    1.000
    C118     C        0.89323    0.51110    0.06739    1.000
    H81      H        0.93460    0.48240    0.09260    1.000
    C119     C        0.91820    0.79330    0.33355    1.000
    C120     C        0.92150    0.39500    0.94420    1.000
    H82      H        0.94940    0.33100    0.93430    1.000
    C121     C        0.92910    0.40860    0.99665    1.000
    H83      H        0.96190    0.35560    0.02160    1.000
    C122     C        0.88825    0.50060    0.01228    1.000
    C123     C        0.84303    0.57830    0.97364    1.000
    H84      H        0.81510    0.64430    0.98250    1.000
    C124     C        0.83895    0.55930    0.92250    1.000
    H85      H        0.80780    0.61360    0.89690    1.000
    C125     C        0.90681    0.30110    0.32608    1.000
    Co6      Co       0.36390    0.05592    0.32572    1.000
    O21      O        0.45328    0.18749    0.33802    1.000
    O22      O        0.35602    0.28787    0.33048    1.000
    O23      O        0.44096    0.90961    0.33331    1.000
    O24      O        0.34397    0.79903    0.31914    1.000
    N16      N        0.75327    0.56251    0.31160    1.000
    N17      N        0.35054    0.06574    0.24371    1.000
    N18      N        0.37681    0.96750    0.90701    1.000
    C126     C        0.54715    0.55480    0.32065    1.000
    C127     C        0.51625    0.43160    0.32534    1.000
    H86      H        0.54020    0.34960    0.32520    1.000
    C128     C        0.45065    0.42750    0.33021    1.000
    C129     C        0.41480    0.54710    0.32973    1.000
    H87      H        0.36970    0.54420    0.33200    1.000
    C130     C        0.44495    0.67110    0.32594    1.000
    C131     C        0.51079    0.67420    0.32117    1.000
    H88      H        0.53110    0.75860    0.31820    1.000
    C132     C        0.71252    0.45460    0.29622    1.000
    H89      H        0.73020    0.37850    0.28340    1.000
    C133     C        0.64571    0.44800    0.29804    1.000
    H90      H        0.61940    0.36820    0.28720    1.000
    C134     C        0.61734    0.55880    0.31586    1.000
    C135     C        0.65896    0.67260    0.32969    1.000
    H91      H        0.64200    0.75180    0.34110    1.000
    C136     C        0.72518    0.67090    0.32688    1.000
    H92      H        0.75210    0.75040    0.33620    1.000
    C137     C        0.34309    0.05870    0.08421    1.000
    H93      H        0.30240    0.09020    0.05900    1.000
    C138     C        0.29206    0.08830    0.20516    1.000
    H94      H        0.25150    0.10470    0.21380    1.000
    C139     C        0.28798    0.08900    0.15322    1.000
    H95      H        0.24530    0.10540    0.12730    1.000
    C140     C        0.34662    0.06550    0.13908    1.000
    C141     C        0.40802    0.04700    0.17932    1.000
    H96      H        0.44980    0.03470    0.17200    1.000
    C142     C        0.40743    0.04700    0.22989    1.000
    H97      H        0.44970    0.03290    0.25660    1.000
    C143     C        0.39323    0.01110    0.06739    1.000
    H98      H        0.43460    0.98240    0.09260    1.000
    C144     C        0.41820    0.29330    0.33355    1.000
    C145     C        0.42150    0.89500    0.94420    1.000
    H99      H        0.44940    0.83100    0.93430    1.000
    C146     C        0.42910    0.90860    0.99665    1.000
    H100     H        0.46190    0.85560    0.02160    1.000
    C147     C        0.38825    0.00060    0.01228    1.000
    C148     C        0.34303    0.07830    0.97364    1.000
    H101     H        0.31510    0.14430    0.98250    1.000
    C149     C        0.33895    0.05930    0.92250    1.000
    H102     H        0.30780    0.11360    0.89690    1.000
    C150     C        0.40681    0.80110    0.32608    1.000
    Co7      Co       0.86390    0.44408    0.82572    1.000
    O25      O        0.95328    0.31251    0.83802    1.000
    O26      O        0.85602    0.21213    0.83048    1.000
    O27      O        0.94096    0.59039    0.83331    1.000
    O28      O        0.84397    0.70097    0.81914    1.000
    N19      N        0.25327    0.93749    0.81160    1.000
    N20      N        0.85054    0.43426    0.74371    1.000
    N21      N        0.87681    0.53250    0.40701    1.000
    C151     C        0.04715    0.94520    0.82065    1.000
    C152     C        0.01625    0.06840    0.82534    1.000
    H103     H        0.04020    0.15040    0.82520    1.000
    C153     C        0.95065    0.07250    0.83021    1.000
    C154     C        0.91480    0.95290    0.82973    1.000
    H104     H        0.86970    0.95580    0.83200    1.000
    C155     C        0.94495    0.82890    0.82594    1.000
    C156     C        0.01079    0.82580    0.82117    1.000
    H105     H        0.03110    0.74140    0.81820    1.000
    C157     C        0.21252    0.04540    0.79622    1.000
    H106     H        0.23020    0.12150    0.78340    1.000
    C158     C        0.14571    0.05200    0.79804    1.000
    H107     H        0.11940    0.13180    0.78720    1.000
    C159     C        0.11734    0.94120    0.81586    1.000
    C160     C        0.15896    0.82740    0.82969    1.000
    H108     H        0.14200    0.74820    0.84110    1.000
    C161     C        0.22518    0.82910    0.82688    1.000
    H109     H        0.25210    0.74960    0.83620    1.000
    C162     C        0.84309    0.44130    0.58421    1.000
    H110     H        0.80240    0.40980    0.55900    1.000
    C163     C        0.79206    0.41170    0.70516    1.000
    H111     H        0.75150    0.39530    0.71380    1.000
    C164     C        0.78798    0.41100    0.65322    1.000
    H112     H        0.74530    0.39460    0.62730    1.000
    C165     C        0.84662    0.43450    0.63908    1.000
    C166     C        0.90802    0.45300    0.67932    1.000
    H113     H        0.94980    0.46530    0.67200    1.000
    C167     C        0.90743    0.45300    0.72989    1.000
    H114     H        0.94970    0.46710    0.75660    1.000
    C168     C        0.89323    0.48890    0.56739    1.000
    H115     H        0.93460    0.51760    0.59260    1.000
    C169     C        0.91820    0.20670    0.83355    1.000
    C170     C        0.92150    0.60500    0.44420    1.000
    H116     H        0.94940    0.66900    0.43430    1.000
    C171     C        0.92910    0.59140    0.49665    1.000
    H117     H        0.96190    0.64440    0.52160    1.000
    C172     C        0.88825    0.49940    0.51228    1.000
    C173     C        0.84303    0.42170    0.47364    1.000
    H118     H        0.81510    0.35570    0.48250    1.000
    C174     C        0.83895    0.44070    0.42250    1.000
    H119     H        0.80780    0.38640    0.39690    1.000
    C175     C        0.90681    0.69890    0.82608    1.000
    Co8      Co       0.36390    0.94408    0.82572    1.000
    O29      O        0.45328    0.81251    0.83802    1.000
    O30      O        0.35602    0.71213    0.83048    1.000
    O31      O        0.44096    0.09039    0.83331    1.000
    O32      O        0.34397    0.20097    0.81914    1.000
    N22      N        0.75327    0.43749    0.81160    1.000
    N23      N        0.35054    0.93426    0.74371    1.000
    N24      N        0.37681    0.03250    0.40701    1.000
    C176     C        0.54715    0.44520    0.82065    1.000
    C177     C        0.51625    0.56840    0.82534    1.000
    H120     H        0.54020    0.65040    0.82520    1.000
    C178     C        0.45065    0.57250    0.83021    1.000
    C179     C        0.41480    0.45290    0.82973    1.000
    H121     H        0.36970    0.45580    0.83200    1.000
    C180     C        0.44495    0.32890    0.82594    1.000
    C181     C        0.51079    0.32580    0.82117    1.000
    H122     H        0.53110    0.24140    0.81820    1.000
    C182     C        0.71252    0.54540    0.79622    1.000
    H123     H        0.73020    0.62150    0.78340    1.000
    C183     C        0.64571    0.55200    0.79804    1.000
    H124     H        0.61940    0.63180    0.78720    1.000
    C184     C        0.61734    0.44120    0.81586    1.000
    C185     C        0.65896    0.32740    0.82969    1.000
    H125     H        0.64200    0.24820    0.84110    1.000
    C186     C        0.72518    0.32910    0.82688    1.000
    H126     H        0.75210    0.24960    0.83620    1.000
    C187     C        0.34309    0.94130    0.58421    1.000
    H127     H        0.30240    0.90980    0.55900    1.000
    C188     C        0.29206    0.91170    0.70516    1.000
    H128     H        0.25150    0.89530    0.71380    1.000
    C189     C        0.28798    0.91100    0.65322    1.000
    H129     H        0.24530    0.89460    0.62730    1.000
    C190     C        0.34662    0.93450    0.63908    1.000
    C191     C        0.40802    0.95300    0.67932    1.000
    H130     H        0.44980    0.96530    0.67200    1.000
    C192     C        0.40743    0.95300    0.72989    1.000
    H131     H        0.44970    0.96710    0.75660    1.000
    C193     C        0.39323    0.98890    0.56739    1.000
    H132     H        0.43460    0.01760    0.59260    1.000
    C194     C        0.41820    0.70670    0.83355    1.000
    C195     C        0.42150    0.10500    0.44420    1.000
    H133     H        0.44940    0.16900    0.43430    1.000
    C196     C        0.42910    0.09140    0.49665    1.000
    H134     H        0.46190    0.14440    0.52160    1.000
    C197     C        0.38825    0.99940    0.51228    1.000
    C198     C        0.34303    0.92170    0.47364    1.000
    H135     H        0.31510    0.85570    0.48250    1.000
    C199     C        0.33895    0.94070    0.42250    1.000
    H136     H        0.30780    0.88640    0.39690    1.000
    C200     C        0.40681    0.19890    0.82608    1.000
