# CIF file generated by openbabel 3.1.0, see https://openbabel.org
data_I
_chemical_name_common 'image0'
_cell_length_a 16.442
_cell_length_b 17.697
_cell_length_c 27.528
_cell_angle_alpha 90
_cell_angle_beta 90
_cell_angle_gamma 90
_space_group_name_H-M_alt 'P 1'
_space_group_name_Hall 'P 1'
loop_
    _symmetry_equiv_pos_as_xyz
    x,y,z
loop_
    _atom_site_label
    _atom_site_type_symbol
    _atom_site_fract_x
    _atom_site_fract_y
    _atom_site_fract_z
    _atom_site_occupancy
    Zn1      Zn       0.51387    0.24918    0.38413    1.000
    O1       O        0.61604    0.25093    0.34789    1.000
    O2       O        0.58926    0.14590    0.30530    1.000
    O3       O        0.91503    0.21998    0.15165    1.000
    O4       O        0.95249    0.31589    0.19872    1.000
    O5       O        0.51520    0.34840    0.41433    1.000
    O6       O        0.38590    0.34480    0.43957    1.000
    O7       O        0.50873    0.17342    0.43483    1.000
    O8       O        0.63531    0.15874    0.46207    1.000
    C1       C        0.62911    0.20348    0.31394    1.000
    C2       C        0.70128    0.22083    0.28207    1.000
    C3       C        0.77848    0.19826    0.29722    1.000
    C4       C        0.79242    0.16391    0.34388    1.000
    H1       H        0.74780    0.15460    0.36500    1.000
    C5       C        0.86853    0.14467    0.35802    1.000
    H2       H        0.87680    0.12310    0.38920    1.000
    C6       C        0.93586    0.15621    0.32693    1.000
    H3       H        0.98880    0.14190    0.33730    1.000
    C7       C        0.92536    0.18770    0.28232    1.000
    H4       H        0.97100    0.19420    0.26160    1.000
    C8       C        0.84707    0.21118    0.26613    1.000
    C9       C        0.83470    0.24657    0.22105    1.000
    C10      C        0.75778    0.27026    0.20621    1.000
    C11      C        0.74471    0.30882    0.16094    1.000
    H5       H        0.78900    0.31590    0.13920    1.000
    C12      C        0.67021    0.33518    0.14880    1.000
    H6       H        0.66260    0.36040    0.11870    1.000
    C13      C        0.60326    0.32547    0.18083    1.000
    H7       H        0.55150    0.34530    0.17220    1.000
    C14      C        0.61237    0.28823    0.22362    1.000
    H8       H        0.56680    0.28210    0.24450    1.000
    C15      C        0.68932    0.25824    0.23770    1.000
    C16      C        0.90634    0.26313    0.18899    1.000
    C17      C        0.45514    0.37164    0.43938    1.000
    C18      C        0.47641    0.43821    0.47122    1.000
    C19      C        0.52271    0.42559    0.51311    1.000
    C20      C        0.54775    0.35148    0.52757    1.000
    H9       H        0.53320    0.30930    0.50810    1.000
    C21      C        0.59197    0.34025    0.56861    1.000
    H10      H        0.60790    0.29050    0.57750    1.000
    C22      C        0.61447    0.40246    0.59830    1.000
    H11      H        0.64460    0.39390    0.62720    1.000
    C23      C        0.59324    0.47420    0.58568    1.000
    H12      H        0.60930    0.51530    0.60570    1.000
    C24      C        0.45291    0.51156    0.45740    1.000
    C25      C        0.56390    0.13908    0.45808    1.000
    C26      C        0.53397    0.06655    0.48100    1.000
    C27      C        0.49042    0.06957    0.52457    1.000
    C28      C        0.47851    0.13879    0.55074    1.000
    H13      H        0.50050    0.18440    0.53810    1.000
    C29      C        0.43671    0.14058    0.59308    1.000
    H14      H        0.42900    0.18720    0.60960    1.000
    C30      C        0.40434    0.07294    0.61289    1.000
    H15      H        0.37590    0.07460    0.64290    1.000
    C31      C        0.41340    0.00600    0.58951    1.000
    H16      H        0.39120    0.96140    0.60340    1.000
    C32      C        0.54402    0.99855    0.45586    1.000
    Zn2      Zn       0.98613    0.75083    0.88413    1.000
    O9       O        0.88396    0.74907    0.84789    1.000
    O10      O        0.91074    0.85410    0.80530    1.000
    O11      O        0.58497    0.78002    0.65165    1.000
    O12      O        0.54751    0.68411    0.69872    1.000
    O13      O        0.98480    0.65160    0.91433    1.000
    O14      O        0.11410    0.65520    0.93957    1.000
    O15      O        0.99127    0.82658    0.93483    1.000
    O16      O        0.86469    0.84126    0.96207    1.000
    C33      C        0.87089    0.79652    0.81394    1.000
    C34      C        0.79872    0.77917    0.78207    1.000
    C35      C        0.72152    0.80174    0.79722    1.000
    C36      C        0.70758    0.83609    0.84388    1.000
    H17      H        0.75220    0.84540    0.86500    1.000
    C37      C        0.63147    0.85533    0.85802    1.000
    H18      H        0.62320    0.87690    0.88920    1.000
    C38      C        0.56414    0.84379    0.82693    1.000
    H19      H        0.51120    0.85810    0.83730    1.000
    C39      C        0.57464    0.81230    0.78232    1.000
    H20      H        0.52900    0.80580    0.76160    1.000
    C40      C        0.65293    0.78882    0.76613    1.000
    C41      C        0.66530    0.75343    0.72105    1.000
    C42      C        0.74222    0.72974    0.70621    1.000
    C43      C        0.75529    0.69118    0.66094    1.000
    H21      H        0.71100    0.68410    0.63920    1.000
    C44      C        0.82979    0.66482    0.64880    1.000
    H22      H        0.83740    0.63960    0.61870    1.000
    C45      C        0.89674    0.67453    0.68083    1.000
    H23      H        0.94850    0.65470    0.67220    1.000
    C46      C        0.88763    0.71177    0.72362    1.000
    H24      H        0.93320    0.71790    0.74450    1.000
    C47      C        0.81068    0.74176    0.73770    1.000
    C48      C        0.59366    0.73687    0.68899    1.000
    C49      C        0.04486    0.62836    0.93938    1.000
    C50      C        0.02359    0.56179    0.97122    1.000
    C51      C        0.97729    0.57441    0.01311    1.000
    C52      C        0.95225    0.64852    0.02757    1.000
    H25      H        0.96680    0.69070    0.00810    1.000
    C53      C        0.90803    0.65975    0.06861    1.000
    H26      H        0.89210    0.70950    0.07750    1.000
    C54      C        0.88553    0.59754    0.09830    1.000
    H27      H        0.85540    0.60610    0.12720    1.000
    C55      C        0.90676    0.52580    0.08568    1.000
    H28      H        0.89070    0.48470    0.10570    1.000
    C56      C        0.04709    0.48844    0.95740    1.000
    C57      C        0.93610    0.86092    0.95808    1.000
    C58      C        0.96603    0.93345    0.98100    1.000
    C59      C        0.00958    0.93043    0.02457    1.000
    C60      C        0.02149    0.86121    0.05074    1.000
    H29      H        0.99950    0.81560    0.03810    1.000
    C61      C        0.06329    0.85942    0.09308    1.000
    H30      H        0.07100    0.81280    0.10960    1.000
    C62      C        0.09566    0.92706    0.11289    1.000
    H31      H        0.12410    0.92540    0.14290    1.000
    C63      C        0.08660    0.99400    0.08951    1.000
    H32      H        0.10880    0.03860    0.10340    1.000
    C64      C        0.95598    0.00145    0.95586    1.000
    Zn3      Zn       0.48613    0.75083    0.61587    1.000
    O17      O        0.38396    0.74907    0.65211    1.000
    O18      O        0.41074    0.85410    0.69470    1.000
    O19      O        0.08497    0.78002    0.84835    1.000
    O20      O        0.04751    0.68411    0.80128    1.000
    O21      O        0.48480    0.65160    0.58567    1.000
    O22      O        0.61410    0.65520    0.56043    1.000
    O23      O        0.49127    0.82658    0.56517    1.000
    O24      O        0.36469    0.84126    0.53793    1.000
    C65      C        0.37089    0.79652    0.68606    1.000
    C66      C        0.29872    0.77917    0.71793    1.000
    C67      C        0.22152    0.80174    0.70278    1.000
    C68      C        0.20758    0.83609    0.65612    1.000
    H33      H        0.25220    0.84540    0.63500    1.000
    C69      C        0.13147    0.85533    0.64198    1.000
    H34      H        0.12320    0.87690    0.61080    1.000
    C70      C        0.06414    0.84379    0.67307    1.000
    H35      H        0.01120    0.85810    0.66270    1.000
    C71      C        0.07464    0.81230    0.71768    1.000
    H36      H        0.02900    0.80580    0.73840    1.000
    C72      C        0.15293    0.78882    0.73387    1.000
    C73      C        0.16530    0.75343    0.77895    1.000
    C74      C        0.24222    0.72974    0.79379    1.000
    C75      C        0.25529    0.69118    0.83906    1.000
    H37      H        0.21100    0.68410    0.86080    1.000
    C76      C        0.32979    0.66482    0.85120    1.000
    H38      H        0.33740    0.63960    0.88130    1.000
    C77      C        0.39674    0.67453    0.81917    1.000
    H39      H        0.44850    0.65470    0.82780    1.000
    C78      C        0.38763    0.71177    0.77638    1.000
    H40      H        0.43320    0.71790    0.75550    1.000
    C79      C        0.31068    0.74176    0.76230    1.000
    C80      C        0.09366    0.73687    0.81101    1.000
    C81      C        0.54486    0.62836    0.56062    1.000
    C82      C        0.52359    0.56179    0.52878    1.000
    C83      C        0.47729    0.57441    0.48689    1.000
    C84      C        0.45225    0.64852    0.47243    1.000
    H41      H        0.46680    0.69070    0.49190    1.000
    C85      C        0.40803    0.65975    0.43139    1.000
    H42      H        0.39210    0.70950    0.42250    1.000
    C86      C        0.38553    0.59754    0.40170    1.000
    H43      H        0.35540    0.60610    0.37280    1.000
    C87      C        0.40676    0.52580    0.41432    1.000
    H44      H        0.39070    0.48470    0.39430    1.000
    C88      C        0.54709    0.48844    0.54260    1.000
    C89      C        0.43610    0.86092    0.54192    1.000
    C90      C        0.46603    0.93345    0.51900    1.000
    C91      C        0.50958    0.93043    0.47543    1.000
    C92      C        0.52149    0.86121    0.44926    1.000
    H45      H        0.49950    0.81560    0.46190    1.000
    C93      C        0.56329    0.85942    0.40692    1.000
    H46      H        0.57100    0.81280    0.39040    1.000
    C94      C        0.59566    0.92706    0.38711    1.000
    H47      H        0.62410    0.92540    0.35710    1.000
    C95      C        0.58660    0.99400    0.41049    1.000
    H48      H        0.60880    0.03860    0.39660    1.000
    C96      C        0.45598    0.00145    0.54414    1.000
    Zn4      Zn       0.01387    0.24918    0.11587    1.000
    O25      O        0.11604    0.25093    0.15211    1.000
    O26      O        0.08926    0.14590    0.19470    1.000
    O27      O        0.41503    0.21998    0.34835    1.000
    O28      O        0.45249    0.31589    0.30128    1.000
    O29      O        0.01520    0.34840    0.08567    1.000
    O30      O        0.88590    0.34480    0.06043    1.000
    O31      O        0.00873    0.17342    0.06517    1.000
    O32      O        0.13531    0.15874    0.03793    1.000
    C97      C        0.12911    0.20348    0.18606    1.000
    C98      C        0.20128    0.22083    0.21793    1.000
    C99      C        0.27848    0.19826    0.20278    1.000
    C100     C        0.29242    0.16391    0.15612    1.000
    H49      H        0.24780    0.15460    0.13500    1.000
    C101     C        0.36853    0.14467    0.14198    1.000
    H50      H        0.37680    0.12310    0.11080    1.000
    C102     C        0.43586    0.15621    0.17307    1.000
    H51      H        0.48880    0.14190    0.16270    1.000
    C103     C        0.42536    0.18770    0.21768    1.000
    H52      H        0.47100    0.19420    0.23840    1.000
    C104     C        0.34707    0.21118    0.23387    1.000
    C105     C        0.33470    0.24657    0.27895    1.000
    C106     C        0.25778    0.27026    0.29379    1.000
    C107     C        0.24471    0.30882    0.33906    1.000
    H53      H        0.28900    0.31590    0.36080    1.000
    C108     C        0.17021    0.33518    0.35120    1.000
    H54      H        0.16260    0.36040    0.38130    1.000
    C109     C        0.10326    0.32547    0.31917    1.000
    H55      H        0.05150    0.34530    0.32780    1.000
    C110     C        0.11237    0.28823    0.27638    1.000
    H56      H        0.06680    0.28210    0.25550    1.000
    C111     C        0.18932    0.25824    0.26230    1.000
    C112     C        0.40634    0.26313    0.31101    1.000
    C113     C        0.95514    0.37164    0.06062    1.000
    C114     C        0.97641    0.43821    0.02878    1.000
    C115     C        0.02271    0.42559    0.98689    1.000
    C116     C        0.04775    0.35148    0.97243    1.000
    H57      H        0.03320    0.30930    0.99190    1.000
    C117     C        0.09197    0.34025    0.93139    1.000
    H58      H        0.10790    0.29050    0.92250    1.000
    C118     C        0.11447    0.40246    0.90170    1.000
    H59      H        0.14460    0.39390    0.87280    1.000
    C119     C        0.09324    0.47420    0.91432    1.000
    H60      H        0.10930    0.51530    0.89430    1.000
    C120     C        0.95291    0.51156    0.04260    1.000
    C121     C        0.06390    0.13908    0.04192    1.000
    C122     C        0.03397    0.06655    0.01900    1.000
    C123     C        0.99042    0.06957    0.97543    1.000
    C124     C        0.97851    0.13879    0.94926    1.000
    H61      H        0.00050    0.18440    0.96190    1.000
    C125     C        0.93671    0.14058    0.90692    1.000
    H62      H        0.92900    0.18720    0.89040    1.000
    C126     C        0.90434    0.07294    0.88711    1.000
    H63      H        0.87590    0.07460    0.85710    1.000
    C127     C        0.91340    0.00600    0.91049    1.000
    H64      H        0.89120    0.96140    0.89660    1.000
    C128     C        0.04402    0.99855    0.04414    1.000
    Zn5      Zn       0.48613    0.74918    0.11587    1.000
    O33      O        0.38396    0.75093    0.15211    1.000
    O34      O        0.41074    0.64590    0.19470    1.000
    O35      O        0.08497    0.71998    0.34835    1.000
    O36      O        0.04751    0.81589    0.30128    1.000
    O37      O        0.48480    0.84840    0.08567    1.000
    O38      O        0.61410    0.84480    0.06043    1.000
    O39      O        0.49127    0.67342    0.06517    1.000
    O40      O        0.36469    0.65874    0.03793    1.000
    C129     C        0.37089    0.70348    0.18606    1.000
    C130     C        0.29872    0.72083    0.21793    1.000
    C131     C        0.22152    0.69826    0.20278    1.000
    C132     C        0.20758    0.66391    0.15612    1.000
    H65      H        0.25220    0.65460    0.13500    1.000
    C133     C        0.13147    0.64467    0.14198    1.000
    H66      H        0.12320    0.62310    0.11080    1.000
    C134     C        0.06414    0.65621    0.17307    1.000
    H67      H        0.01120    0.64190    0.16270    1.000
    C135     C        0.07464    0.68770    0.21768    1.000
    H68      H        0.02900    0.69420    0.23840    1.000
    C136     C        0.15293    0.71118    0.23387    1.000
    C137     C        0.16530    0.74657    0.27895    1.000
    C138     C        0.24222    0.77026    0.29379    1.000
    C139     C        0.25529    0.80882    0.33906    1.000
    H69      H        0.21100    0.81590    0.36080    1.000
    C140     C        0.32979    0.83518    0.35120    1.000
    H70      H        0.33740    0.86040    0.38130    1.000
    C141     C        0.39674    0.82547    0.31917    1.000
    H71      H        0.44850    0.84530    0.32780    1.000
    C142     C        0.38763    0.78823    0.27638    1.000
    H72      H        0.43320    0.78210    0.25550    1.000
    C143     C        0.31068    0.75824    0.26230    1.000
    C144     C        0.09366    0.76313    0.31101    1.000
    C145     C        0.54486    0.87164    0.06062    1.000
    C146     C        0.52359    0.93821    0.02878    1.000
    C147     C        0.47729    0.92559    0.98689    1.000
    C148     C        0.45225    0.85148    0.97243    1.000
    H73      H        0.46680    0.80930    0.99190    1.000
    C149     C        0.40803    0.84025    0.93139    1.000
    H74      H        0.39210    0.79050    0.92250    1.000
    C150     C        0.38553    0.90246    0.90170    1.000
    H75      H        0.35540    0.89390    0.87280    1.000
    C151     C        0.40676    0.97420    0.91432    1.000
    H76      H        0.39070    0.01530    0.89430    1.000
    C152     C        0.54709    0.01156    0.04260    1.000
    C153     C        0.43610    0.63908    0.04192    1.000
    C154     C        0.46603    0.56655    0.01900    1.000
    C155     C        0.50958    0.56957    0.97543    1.000
    C156     C        0.52149    0.63879    0.94926    1.000
    H77      H        0.49950    0.68440    0.96190    1.000
    C157     C        0.56329    0.64058    0.90692    1.000
    H78      H        0.57100    0.68720    0.89040    1.000
    C158     C        0.59566    0.57294    0.88711    1.000
    H79      H        0.62410    0.57460    0.85710    1.000
    C159     C        0.58660    0.50600    0.91049    1.000
    H80      H        0.60880    0.46140    0.89660    1.000
    C160     C        0.45598    0.49855    0.04414    1.000
    Zn6      Zn       0.01387    0.25082    0.61587    1.000
    O41      O        0.11604    0.24907    0.65211    1.000
    O42      O        0.08926    0.35410    0.69470    1.000
    O43      O        0.41503    0.28002    0.84835    1.000
    O44      O        0.45249    0.18411    0.80128    1.000
    O45      O        0.01520    0.15160    0.58567    1.000
    O46      O        0.88590    0.15520    0.56043    1.000
    O47      O        0.00873    0.32658    0.56517    1.000
    O48      O        0.13531    0.34126    0.53793    1.000
    C161     C        0.12911    0.29652    0.68606    1.000
    C162     C        0.20128    0.27917    0.71793    1.000
    C163     C        0.27848    0.30174    0.70278    1.000
    C164     C        0.29242    0.33609    0.65612    1.000
    H81      H        0.24780    0.34540    0.63500    1.000
    C165     C        0.36853    0.35533    0.64198    1.000
    H82      H        0.37680    0.37690    0.61080    1.000
    C166     C        0.43586    0.34379    0.67307    1.000
    H83      H        0.48880    0.35810    0.66270    1.000
    C167     C        0.42536    0.31230    0.71768    1.000
    H84      H        0.47100    0.30580    0.73840    1.000
    C168     C        0.34707    0.28882    0.73387    1.000
    C169     C        0.33470    0.25343    0.77895    1.000
    C170     C        0.25778    0.22974    0.79379    1.000
    C171     C        0.24471    0.19118    0.83906    1.000
    H85      H        0.28900    0.18410    0.86080    1.000
    C172     C        0.17021    0.16482    0.85120    1.000
    H86      H        0.16260    0.13960    0.88130    1.000
    C173     C        0.10326    0.17453    0.81917    1.000
    H87      H        0.05150    0.15470    0.82780    1.000
    C174     C        0.11237    0.21177    0.77638    1.000
    H88      H        0.06680    0.21790    0.75550    1.000
    C175     C        0.18932    0.24176    0.76230    1.000
    C176     C        0.40634    0.23687    0.81101    1.000
    C177     C        0.95514    0.12836    0.56062    1.000
    C178     C        0.97641    0.06179    0.52878    1.000
    C179     C        0.02271    0.07441    0.48689    1.000
    C180     C        0.04775    0.14852    0.47243    1.000
    H89      H        0.03320    0.19070    0.49190    1.000
    C181     C        0.09197    0.15975    0.43139    1.000
    H90      H        0.10790    0.20950    0.42250    1.000
    C182     C        0.11447    0.09754    0.40170    1.000
    H91      H        0.14460    0.10610    0.37280    1.000
    C183     C        0.09324    0.02580    0.41432    1.000
    H92      H        0.10930    0.98470    0.39430    1.000
    C184     C        0.95291    0.98844    0.54260    1.000
    C185     C        0.06390    0.36092    0.54192    1.000
    C186     C        0.03397    0.43345    0.51900    1.000
    C187     C        0.99042    0.43043    0.47543    1.000
    C188     C        0.97851    0.36121    0.44926    1.000
    H93      H        0.00050    0.31560    0.46190    1.000
    C189     C        0.93671    0.35942    0.40692    1.000
    H94      H        0.92900    0.31280    0.39040    1.000
    C190     C        0.90434    0.42706    0.38711    1.000
    H95      H        0.87590    0.42540    0.35710    1.000
    C191     C        0.91340    0.49400    0.41049    1.000
    H96      H        0.89120    0.53860    0.39660    1.000
    C192     C        0.04402    0.50145    0.54414    1.000
    Zn7      Zn       0.51387    0.25082    0.88413    1.000
    O49      O        0.61604    0.24907    0.84789    1.000
    O50      O        0.58926    0.35410    0.80530    1.000
    O51      O        0.91503    0.28002    0.65165    1.000
    O52      O        0.95249    0.18411    0.69872    1.000
    O53      O        0.51520    0.15160    0.91433    1.000
    O54      O        0.38590    0.15520    0.93957    1.000
    O55      O        0.50873    0.32658    0.93483    1.000
    O56      O        0.63531    0.34126    0.96207    1.000
    C193     C        0.62911    0.29652    0.81394    1.000
    C194     C        0.70128    0.27917    0.78207    1.000
    C195     C        0.77848    0.30174    0.79722    1.000
    C196     C        0.79242    0.33609    0.84388    1.000
    H97      H        0.74780    0.34540    0.86500    1.000
    C197     C        0.86853    0.35533    0.85802    1.000
    H98      H        0.87680    0.37690    0.88920    1.000
    C198     C        0.93586    0.34379    0.82693    1.000
    H99      H        0.98880    0.35810    0.83730    1.000
    C199     C        0.92536    0.31230    0.78232    1.000
    H100     H        0.97100    0.30580    0.76160    1.000
    C200     C        0.84707    0.28882    0.76613    1.000
    C201     C        0.83470    0.25343    0.72105    1.000
    C202     C        0.75778    0.22974    0.70621    1.000
    C203     C        0.74471    0.19118    0.66094    1.000
    H101     H        0.78900    0.18410    0.63920    1.000
    C204     C        0.67021    0.16482    0.64880    1.000
    H102     H        0.66260    0.13960    0.61870    1.000
    C205     C        0.60326    0.17453    0.68083    1.000
    H103     H        0.55150    0.15470    0.67220    1.000
    C206     C        0.61237    0.21177    0.72362    1.000
    H104     H        0.56680    0.21790    0.74450    1.000
    C207     C        0.68932    0.24176    0.73770    1.000
    C208     C        0.90634    0.23687    0.68899    1.000
    C209     C        0.45514    0.12836    0.93938    1.000
    C210     C        0.47641    0.06179    0.97122    1.000
    C211     C        0.52271    0.07441    0.01311    1.000
    C212     C        0.54775    0.14852    0.02757    1.000
    H105     H        0.53320    0.19070    0.00810    1.000
    C213     C        0.59197    0.15975    0.06861    1.000
    H106     H        0.60790    0.20950    0.07750    1.000
    C214     C        0.61447    0.09754    0.09830    1.000
    H107     H        0.64460    0.10610    0.12720    1.000
    C215     C        0.59324    0.02580    0.08568    1.000
    H108     H        0.60930    0.98470    0.10570    1.000
    C216     C        0.45291    0.98844    0.95740    1.000
    C217     C        0.56390    0.36092    0.95808    1.000
    C218     C        0.53397    0.43345    0.98100    1.000
    C219     C        0.49042    0.43043    0.02457    1.000
    C220     C        0.47851    0.36121    0.05074    1.000
    H109     H        0.50050    0.31560    0.03810    1.000
    C221     C        0.43671    0.35942    0.09308    1.000
    H110     H        0.42900    0.31280    0.10960    1.000
    C222     C        0.40434    0.42706    0.11289    1.000
    H111     H        0.37590    0.42540    0.14290    1.000
    C223     C        0.41340    0.49400    0.08951    1.000
    H112     H        0.39120    0.53860    0.10340    1.000
    C224     C        0.54402    0.50145    0.95586    1.000
    Zn8      Zn       0.98613    0.74918    0.38413    1.000
    O57      O        0.88396    0.75093    0.34789    1.000
    O58      O        0.91074    0.64590    0.30530    1.000
    O59      O        0.58497    0.71998    0.15165    1.000
    O60      O        0.54751    0.81589    0.19872    1.000
    O61      O        0.98480    0.84840    0.41433    1.000
    O62      O        0.11410    0.84480    0.43957    1.000
    O63      O        0.99127    0.67342    0.43483    1.000
    O64      O        0.86469    0.65874    0.46207    1.000
    C225     C        0.87089    0.70348    0.31394    1.000
    C226     C        0.79872    0.72083    0.28207    1.000
    C227     C        0.72152    0.69826    0.29722    1.000
    C228     C        0.70758    0.66391    0.34388    1.000
    H113     H        0.75220    0.65460    0.36500    1.000
    C229     C        0.63147    0.64467    0.35802    1.000
    H114     H        0.62320    0.62310    0.38920    1.000
    C230     C        0.56414    0.65621    0.32693    1.000
    H115     H        0.51120    0.64190    0.33730    1.000
    C231     C        0.57464    0.68770    0.28232    1.000
    H116     H        0.52900    0.69420    0.26160    1.000
    C232     C        0.65293    0.71118    0.26613    1.000
    C233     C        0.66530    0.74657    0.22105    1.000
    C234     C        0.74222    0.77026    0.20621    1.000
    C235     C        0.75529    0.80882    0.16094    1.000
    H117     H        0.71100    0.81590    0.13920    1.000
    C236     C        0.82979    0.83518    0.14880    1.000
    H118     H        0.83740    0.86040    0.11870    1.000
    C237     C        0.89674    0.82547    0.18083    1.000
    H119     H        0.94850    0.84530    0.17220    1.000
    C238     C        0.88763    0.78823    0.22362    1.000
    H120     H        0.93320    0.78210    0.24450    1.000
    C239     C        0.81068    0.75824    0.23770    1.000
    C240     C        0.59366    0.76313    0.18899    1.000
    C241     C        0.04486    0.87164    0.43938    1.000
    C242     C        0.02359    0.93821    0.47122    1.000
    C243     C        0.97729    0.92559    0.51311    1.000
    C244     C        0.95225    0.85148    0.52757    1.000
    H121     H        0.96680    0.80930    0.50810    1.000
    C245     C        0.90803    0.84025    0.56861    1.000
    H122     H        0.89210    0.79050    0.57750    1.000
    C246     C        0.88553    0.90246    0.59830    1.000
    H123     H        0.85540    0.89390    0.62720    1.000
    C247     C        0.90676    0.97420    0.58568    1.000
    H124     H        0.89070    0.01530    0.60570    1.000
    C248     C        0.04709    0.01156    0.45740    1.000
    C249     C        0.93610    0.63908    0.45808    1.000
    C250     C        0.96603    0.56655    0.48100    1.000
    C251     C        0.00958    0.56957    0.52457    1.000
    C252     C        0.02149    0.63879    0.55074    1.000
    H125     H        0.99950    0.68440    0.53810    1.000
    C253     C        0.06329    0.64058    0.59308    1.000
    H126     H        0.07100    0.68720    0.60960    1.000
    C254     C        0.09566    0.57294    0.61289    1.000
    H127     H        0.12410    0.57460    0.64290    1.000
    C255     C        0.08660    0.50600    0.58951    1.000
    H128     H        0.10880    0.46140    0.60340    1.000
    C256     C        0.95598    0.49855    0.45586    1.000
