# CIF file generated by openbabel 3.1.0, see https://openbabel.org
data_I
_chemical_name_common 'GIWCAR_ion_b'
_cell_length_a 16.6441
_cell_length_b 16.6441
_cell_length_c 33.146
_cell_angle_alpha 114.265
_cell_angle_beta 114.265
_cell_angle_gamma 45.4407
_space_group_name_H-M_alt 'P 1'
_space_group_name_Hall 'P 1'
loop_
    _symmetry_equiv_pos_as_xyz
    x,y,z
loop_
    _atom_site_label
    _atom_site_type_symbol
    _atom_site_fract_x
    _atom_site_fract_y
    _atom_site_fract_z
    _atom_site_occupancy
    Ag1      Ag       0.01186    0.42214    0.22645    1.000
    Ga2      Ga       0.54800    0.58218    0.41239    1.000
    C3       C        0.67372    0.33672    0.36053    1.000
    H4       H        0.74530    0.32070    0.37320    1.000
    C5       C        0.65983    0.25823    0.32715    1.000
    H6       H        0.71830    0.18230    0.31410    1.000
    C7       C        0.54522    0.31402    0.31768    1.000
    H8       H        0.50850    0.28430    0.29610    1.000
    C9       C        0.49051    0.42431    0.34573    1.000
    C10      C        0.37402    0.51002    0.34796    1.000
    C11      C        0.32033    0.61933    0.37556    1.000
    C12      C        0.20425    0.70285    0.37988    1.000
    H13      H        0.14640    0.69600    0.36460    1.000
    C14      C        0.19004    0.79744    0.41067    1.000
    H15      H        0.12120    0.86760    0.42060    1.000
    C16      C        0.29754    0.76834    0.42396    1.000
    H17      H        0.31250    0.81810    0.44490    1.000
    C18      C        0.29703    0.48343    0.31750    1.000
    C19      C        0.30742    0.39622    0.32135    1.000
    H20      H        0.36500    0.35140    0.34400    1.000
    C21      C        0.23425    0.37505    0.29244    1.000
    H22      H        0.24380    0.31420    0.29540    1.000
    C23      C        0.14167    0.51767    0.25629    1.000
    H24      H        0.08350    0.56010    0.23310    1.000
    C25      C        0.21141    0.54561    0.28363    1.000
    H26      H        0.20090    0.60570    0.27930    1.000
    C27      C        0.43063    0.62943    0.97223    1.000
    H28      H        0.36860    0.64740    0.94740    1.000
    C29      C        0.42566    0.64666    0.01702    1.000
    H30      H        0.36170    0.67750    0.02730    1.000
    C31      C        0.53019    0.61059    0.04219    1.000
    H32      H        0.55320    0.61140    0.07370    1.000
    C33      C        0.59946    0.57126    0.01300    1.000
    C34      C        0.71129    0.53129    0.02416    1.000
    C35      C        0.77407    0.50547    0.99638    1.000
    C36      C        0.88824    0.46364    0.00754    1.000
    H37      H        0.93740    0.44860    0.03620    1.000
    C38      C        0.91502    0.44882    0.97002    1.000
    H39      H        0.98550    0.42190    0.96730    1.000
    C40      C        0.81622    0.48182    0.93608    1.000
    H41      H        0.81060    0.48020    0.90610    1.000
    C42      C        0.77283    0.51403    0.07237    1.000
    C43      C        0.79812    0.58392    0.10158    1.000
    H44      H        0.77560    0.64520    0.09230    1.000
    C45      C        0.85797    0.56237    0.14532    1.000
    H46      H        0.87440    0.61120    0.16580    1.000
    C47      C        0.86724    0.41044    0.13054    1.000
    H48      H        0.89200    0.34860    0.14030    1.000
    C49      C        0.80667    0.42707    0.08722    1.000
    H50      H        0.78880    0.37860    0.06790    1.000
    C51      C        0.41228    0.68948    0.32911    1.000
    H52      H        0.34280    0.72040    0.33480    1.000
    C53      C        0.42072    0.70152    0.29130    1.000
    H54      H        0.35950    0.74250    0.26820    1.000
    C55      C        0.53442    0.64242    0.29492    1.000
    H56      H        0.56770    0.63270    0.27410    1.000
    C57      C        0.59344    0.59864    0.33499    1.000
    C58      C        0.71098    0.53438    0.35195    1.000
    C59      C        0.76969    0.49049    0.39174    1.000
    C60      C        0.88781    0.43101    0.41108    1.000
    H61      H        0.94390    0.40990    0.39860    1.000
    C62      C        0.90582    0.41002    0.45072    1.000
    H63      H        0.97640    0.37280    0.47150    1.000
    C64      C        0.80058    0.45378    0.45482    1.000
    H65      H        0.78960    0.44900    0.47940    1.000
    C66      C        0.78321    0.50841    0.32501    1.000
    C67      C        0.86072    0.39812    0.30307    1.000
    H68      H        0.87090    0.33630    0.30540    1.000
    C69      C        0.92280    0.37880    0.27797    1.000
    H70      H        0.97660    0.30240    0.26350    1.000
    C71      C        0.83785    0.56605    0.29289    1.000
    H72      H        0.82950    0.62570    0.28950    1.000
    C73      C        0.76911    0.59551    0.31982    1.000
    H74      H        0.71540    0.67280    0.33370    1.000
    N75      N        0.57416    0.43556    0.37191    1.000
    N76      N        0.37745    0.66245    0.40390    1.000
    N77      N        0.15145    0.43505    0.26070    1.000
    N78      N        0.53343    0.58483    0.96922    1.000
    N79      N        0.73123    0.51583    0.95114    1.000
    N80      N        0.89253    0.47653    0.15933    1.000
    N81      N        0.51471    0.62911    0.35542    1.000
    N82      N        0.71744    0.50304    0.42055    1.000
    N83      N        0.91121    0.46201    0.27285    1.000
    P84      P        0.19673    0.12951    0.21417    1.000
    F85      F        0.20015    0.03375    0.21176    1.000
    F86      F        0.27901    0.05201    0.18031    1.000
    F87      F        0.08420    0.22260    0.19716    1.000
    F88      F        0.26195    0.14155    0.25654    1.000
    Ag89     Ag       0.57786    0.98814    0.27355    1.000
    Ga90     Ga       0.41782    0.45200    0.08761    1.000
    C91      C        0.66328    0.32628    0.13947    1.000
    H92      H        0.67930    0.25470    0.12680    1.000
    C93      C        0.74177    0.34017    0.17285    1.000
    H94      H        0.81770    0.28170    0.18590    1.000
    C95      C        0.68598    0.45478    0.18232    1.000
    H96      H        0.71570    0.49150    0.20390    1.000
    C97      C        0.57569    0.50949    0.15427    1.000
    C98      C        0.48998    0.62598    0.15204    1.000
    C99      C        0.38067    0.67967    0.12444    1.000
    C100     C        0.29715    0.79575    0.12012    1.000
    H101     H        0.30400    0.85360    0.13540    1.000
    C102     C        0.20256    0.80996    0.08933    1.000
    H103     H        0.13240    0.87880    0.07940    1.000
    C104     C        0.23166    0.70246    0.07604    1.000
    H105     H        0.18190    0.68750    0.05510    1.000
    C106     C        0.51657    0.70297    0.18250    1.000
    C107     C        0.60378    0.69258    0.17865    1.000
    H108     H        0.64860    0.63500    0.15600    1.000
    C109     C        0.62495    0.76575    0.20756    1.000
    H110     H        0.68580    0.75620    0.20460    1.000
    C111     C        0.48233    0.85833    0.24371    1.000
    H112     H        0.43990    0.91650    0.26690    1.000
    C113     C        0.45439    0.78859    0.21637    1.000
    H114     H        0.39430    0.79910    0.22070    1.000
    C115     C        0.37057    0.56937    0.52777    1.000
    H116     H        0.35260    0.63140    0.55260    1.000
    C117     C        0.35334    0.57434    0.48298    1.000
    H118     H        0.32250    0.63830    0.47270    1.000
    C119     C        0.38941    0.46981    0.45781    1.000
    H120     H        0.38860    0.44680    0.42630    1.000
    C121     C        0.42874    0.40054    0.48700    1.000
    C122     C        0.46871    0.28871    0.47584    1.000
    C123     C        0.49453    0.22593    0.50362    1.000
    C124     C        0.53636    0.11176    0.49246    1.000
    H125     H        0.55140    0.06260    0.46380    1.000
    C126     C        0.55118    0.08498    0.52998    1.000
    H127     H        0.57810    0.01450    0.53270    1.000
    C128     C        0.51818    0.18378    0.56392    1.000
    H129     H        0.51980    0.18940    0.59390    1.000
    C130     C        0.48597    0.22717    0.42763    1.000
    C131     C        0.41608    0.20188    0.39842    1.000
    H132     H        0.35480    0.22440    0.40770    1.000
    C133     C        0.43763    0.14203    0.35468    1.000
    H134     H        0.38880    0.12560    0.33420    1.000
    C135     C        0.58956    0.13276    0.36946    1.000
    H136     H        0.65140    0.10800    0.35970    1.000
    C137     C        0.57293    0.19333    0.41278    1.000
    H138     H        0.62140    0.21120    0.43210    1.000
    C139     C        0.31052    0.58772    0.17089    1.000
    H140     H        0.27960    0.65720    0.16520    1.000
    C141     C        0.29848    0.57928    0.20870    1.000
    H142     H        0.25750    0.64050    0.23180    1.000
    C143     C        0.35758    0.46558    0.20508    1.000
    H144     H        0.36730    0.43230    0.22590    1.000
    C145     C        0.40136    0.40656    0.16501    1.000
    C146     C        0.46562    0.28902    0.14805    1.000
    C147     C        0.50951    0.23031    0.10826    1.000
    C148     C        0.56899    0.11219    0.08892    1.000
    H149     H        0.59010    0.05610    0.10140    1.000
    C150     C        0.58998    0.09418    0.04928    1.000
    H151     H        0.62720    0.02360    0.02850    1.000
    C152     C        0.54622    0.19942    0.04518    1.000
    H153     H        0.55100    0.21040    0.02060    1.000
    C154     C        0.49159    0.21679    0.17499    1.000
    C155     C        0.60188    0.13928    0.19693    1.000
    H156     H        0.66370    0.12910    0.19460    1.000
    C157     C        0.62120    0.07720    0.22203    1.000
    H158     H        0.69760    0.02340    0.23650    1.000
    C159     C        0.43395    0.16215    0.20711    1.000
    H160     H        0.37430    0.17050    0.21050    1.000
    C161     C        0.40449    0.23089    0.18018    1.000
    H162     H        0.32720    0.28460    0.16630    1.000
    N163     N        0.56444    0.42584    0.12809    1.000
    N164     N        0.33755    0.62255    0.09610    1.000
    N165     N        0.56495    0.84855    0.23930    1.000
    N166     N        0.41517    0.46657    0.53078    1.000
    N167     N        0.48417    0.26877    0.54886    1.000
    N168     N        0.52347    0.10747    0.34067    1.000
    N169     N        0.37089    0.48529    0.14458    1.000
    N170     N        0.49696    0.28256    0.07945    1.000
    N171     N        0.53799    0.08879    0.22715    1.000
    P172     P        0.87049    0.80327    0.28583    1.000
    F173     F        0.96625    0.79985    0.28824    1.000
    F174     F        0.94799    0.72099    0.31969    1.000
    F175     F        0.77740    0.91580    0.30284    1.000
    F176     F        0.85845    0.73805    0.24346    1.000
    Ag177    Ag       0.98814    0.57786    0.77355    1.000
    Ga178    Ga       0.45200    0.41782    0.58761    1.000
    C179     C        0.32628    0.66328    0.63947    1.000
    H180     H        0.25470    0.67930    0.62680    1.000
    C181     C        0.34017    0.74177    0.67285    1.000
    H182     H        0.28170    0.81770    0.68590    1.000
    C183     C        0.45478    0.68598    0.68232    1.000
    H184     H        0.49150    0.71570    0.70390    1.000
    C185     C        0.50949    0.57569    0.65427    1.000
    C186     C        0.62598    0.48998    0.65204    1.000
    C187     C        0.67967    0.38067    0.62444    1.000
    C188     C        0.79575    0.29715    0.62012    1.000
    H189     H        0.85360    0.30400    0.63540    1.000
    C190     C        0.80996    0.20256    0.58933    1.000
    H191     H        0.87880    0.13240    0.57940    1.000
    C192     C        0.70246    0.23166    0.57604    1.000
    H193     H        0.68750    0.18190    0.55510    1.000
    C194     C        0.70297    0.51657    0.68250    1.000
    C195     C        0.69258    0.60378    0.67865    1.000
    H196     H        0.63500    0.64860    0.65600    1.000
    C197     C        0.76575    0.62495    0.70756    1.000
    H198     H        0.75620    0.68580    0.70460    1.000
    C199     C        0.85833    0.48233    0.74371    1.000
    H200     H        0.91650    0.43990    0.76690    1.000
    C201     C        0.78859    0.45439    0.71637    1.000
    H202     H        0.79910    0.39430    0.72070    1.000
    C203     C        0.56937    0.37057    0.02777    1.000
    H204     H        0.63140    0.35260    0.05260    1.000
    C205     C        0.57434    0.35334    0.98298    1.000
    H206     H        0.63830    0.32250    0.97270    1.000
    C207     C        0.46981    0.38941    0.95781    1.000
    H208     H        0.44680    0.38860    0.92630    1.000
    C209     C        0.40054    0.42874    0.98700    1.000
    C210     C        0.28871    0.46871    0.97584    1.000
    C211     C        0.22593    0.49453    0.00362    1.000
    C212     C        0.11176    0.53636    0.99246    1.000
    H213     H        0.06260    0.55140    0.96380    1.000
    C214     C        0.08498    0.55118    0.02998    1.000
    H215     H        0.01450    0.57810    0.03270    1.000
    C216     C        0.18378    0.51818    0.06392    1.000
    H217     H        0.18940    0.51980    0.09390    1.000
    C218     C        0.22717    0.48597    0.92763    1.000
    C219     C        0.20188    0.41608    0.89842    1.000
    H220     H        0.22440    0.35480    0.90770    1.000
    C221     C        0.14203    0.43763    0.85468    1.000
    H222     H        0.12560    0.38880    0.83420    1.000
    C223     C        0.13276    0.58956    0.86946    1.000
    H224     H        0.10800    0.65140    0.85970    1.000
    C225     C        0.19333    0.57293    0.91278    1.000
    H226     H        0.21120    0.62140    0.93210    1.000
    C227     C        0.58772    0.31052    0.67089    1.000
    H228     H        0.65720    0.27960    0.66520    1.000
    C229     C        0.57928    0.29848    0.70870    1.000
    H230     H        0.64050    0.25750    0.73180    1.000
    C231     C        0.46558    0.35758    0.70508    1.000
    H232     H        0.43230    0.36730    0.72590    1.000
    C233     C        0.40656    0.40136    0.66501    1.000
    C234     C        0.28902    0.46562    0.64805    1.000
    C235     C        0.23031    0.50951    0.60826    1.000
    C236     C        0.11219    0.56899    0.58892    1.000
    H237     H        0.05610    0.59010    0.60140    1.000
    C238     C        0.09418    0.58998    0.54928    1.000
    H239     H        0.02360    0.62720    0.52850    1.000
    C240     C        0.19942    0.54622    0.54518    1.000
    H241     H        0.21040    0.55100    0.52060    1.000
    C242     C        0.21679    0.49159    0.67499    1.000
    C243     C        0.13928    0.60188    0.69693    1.000
    H244     H        0.12910    0.66370    0.69460    1.000
    C245     C        0.07720    0.62120    0.72203    1.000
    H246     H        0.02340    0.69760    0.73650    1.000
    C247     C        0.16215    0.43395    0.70711    1.000
    H248     H        0.17050    0.37430    0.71050    1.000
    C249     C        0.23089    0.40449    0.68018    1.000
    H250     H        0.28460    0.32720    0.66630    1.000
    N251     N        0.42584    0.56444    0.62809    1.000
    N252     N        0.62255    0.33755    0.59610    1.000
    N253     N        0.84855    0.56495    0.73930    1.000
    N254     N        0.46657    0.41517    0.03078    1.000
    N255     N        0.26877    0.48417    0.04886    1.000
    N256     N        0.10747    0.52347    0.84067    1.000
    N257     N        0.48529    0.37089    0.64458    1.000
    N258     N        0.28256    0.49696    0.57945    1.000
    N259     N        0.08879    0.53799    0.72715    1.000
    P260     P        0.80327    0.87049    0.78583    1.000
    F261     F        0.79985    0.96625    0.78824    1.000
    F262     F        0.72099    0.94799    0.81969    1.000
    F263     F        0.91580    0.77740    0.80284    1.000
    F264     F        0.73805    0.85845    0.74346    1.000
    Ag265    Ag       0.42214    0.01186    0.72645    1.000
    Ga266    Ga       0.58218    0.54800    0.91239    1.000
    C267     C        0.33672    0.67372    0.86053    1.000
    H268     H        0.32070    0.74530    0.87320    1.000
    C269     C        0.25823    0.65983    0.82715    1.000
    H270     H        0.18230    0.71830    0.81410    1.000
    C271     C        0.31402    0.54522    0.81768    1.000
    H272     H        0.28430    0.50850    0.79610    1.000
    C273     C        0.42431    0.49051    0.84573    1.000
    C274     C        0.51002    0.37402    0.84796    1.000
    C275     C        0.61933    0.32033    0.87556    1.000
    C276     C        0.70285    0.20425    0.87988    1.000
    H277     H        0.69600    0.14640    0.86460    1.000
    C278     C        0.79744    0.19004    0.91067    1.000
    H279     H        0.86760    0.12120    0.92060    1.000
    C280     C        0.76834    0.29754    0.92396    1.000
    H281     H        0.81810    0.31250    0.94490    1.000
    C282     C        0.48343    0.29703    0.81750    1.000
    C283     C        0.39622    0.30742    0.82135    1.000
    H284     H        0.35140    0.36500    0.84400    1.000
    C285     C        0.37505    0.23425    0.79244    1.000
    H286     H        0.31420    0.24380    0.79540    1.000
    C287     C        0.51767    0.14167    0.75629    1.000
    H288     H        0.56010    0.08350    0.73310    1.000
    C289     C        0.54561    0.21141    0.78363    1.000
    H290     H        0.60570    0.20090    0.77930    1.000
    C291     C        0.62943    0.43063    0.47223    1.000
    H292     H        0.64740    0.36860    0.44740    1.000
    C293     C        0.64666    0.42566    0.51702    1.000
    H294     H        0.67750    0.36170    0.52730    1.000
    C295     C        0.61059    0.53019    0.54219    1.000
    H296     H        0.61140    0.55320    0.57370    1.000
    C297     C        0.57126    0.59946    0.51300    1.000
    C298     C        0.53129    0.71129    0.52416    1.000
    C299     C        0.50547    0.77407    0.49638    1.000
    C300     C        0.46364    0.88824    0.50754    1.000
    H301     H        0.44860    0.93740    0.53620    1.000
    C302     C        0.44882    0.91502    0.47002    1.000
    H303     H        0.42190    0.98550    0.46730    1.000
    C304     C        0.48182    0.81622    0.43608    1.000
    H305     H        0.48020    0.81060    0.40610    1.000
    C306     C        0.51403    0.77283    0.57237    1.000
    C307     C        0.58392    0.79812    0.60158    1.000
    H308     H        0.64520    0.77560    0.59230    1.000
    C309     C        0.56237    0.85797    0.64532    1.000
    H310     H        0.61120    0.87440    0.66580    1.000
    C311     C        0.41044    0.86724    0.63054    1.000
    H312     H        0.34860    0.89200    0.64030    1.000
    C313     C        0.42707    0.80667    0.58722    1.000
    H314     H        0.37860    0.78880    0.56790    1.000
    C315     C        0.68948    0.41228    0.82911    1.000
    H316     H        0.72040    0.34280    0.83480    1.000
    C317     C        0.70152    0.42072    0.79130    1.000
    H318     H        0.74250    0.35950    0.76820    1.000
    C319     C        0.64242    0.53442    0.79492    1.000
    H320     H        0.63270    0.56770    0.77410    1.000
    C321     C        0.59864    0.59344    0.83499    1.000
    C322     C        0.53438    0.71098    0.85195    1.000
    C323     C        0.49049    0.76969    0.89174    1.000
    C324     C        0.43101    0.88781    0.91108    1.000
    H325     H        0.40990    0.94390    0.89860    1.000
    C326     C        0.41002    0.90582    0.95072    1.000
    H327     H        0.37280    0.97640    0.97150    1.000
    C328     C        0.45378    0.80058    0.95482    1.000
    H329     H        0.44900    0.78960    0.97940    1.000
    C330     C        0.50841    0.78321    0.82501    1.000
    C331     C        0.39812    0.86072    0.80307    1.000
    H332     H        0.33630    0.87090    0.80540    1.000
    C333     C        0.37880    0.92280    0.77797    1.000
    H334     H        0.30240    0.97660    0.76350    1.000
    C335     C        0.56605    0.83785    0.79289    1.000
    H336     H        0.62570    0.82950    0.78950    1.000
    C337     C        0.59551    0.76911    0.81982    1.000
    H338     H        0.67280    0.71540    0.83370    1.000
    N339     N        0.43556    0.57416    0.87191    1.000
    N340     N        0.66245    0.37745    0.90390    1.000
    N341     N        0.43505    0.15145    0.76070    1.000
    N342     N        0.58483    0.53343    0.46922    1.000
    N343     N        0.51583    0.73123    0.45114    1.000
    N344     N        0.47653    0.89253    0.65933    1.000
    N345     N        0.62911    0.51471    0.85542    1.000
    N346     N        0.50304    0.71744    0.92055    1.000
    N347     N        0.46201    0.91121    0.77285    1.000
    P348     P        0.12951    0.19673    0.71417    1.000
    F349     F        0.03375    0.20015    0.71176    1.000
    F350     F        0.05201    0.27901    0.68031    1.000
    F351     F        0.22260    0.08420    0.69716    1.000
    F352     F        0.14155    0.26195    0.75654    1.000
