# CIF file generated by openbabel 3.1.0, see https://openbabel.org
data_I
_chemical_name_common 'image0'
_cell_length_a 9.507
_cell_length_b 9.507
_cell_length_c 17.443
_cell_angle_alpha 90
_cell_angle_beta 90
_cell_angle_gamma 120
_space_group_name_H-M_alt 'P 1'
_space_group_name_Hall 'P 1'
loop_
    _symmetry_equiv_pos_as_xyz
    x,y,z
loop_
    _atom_site_label
    _atom_site_type_symbol
    _atom_site_fract_x
    _atom_site_fract_y
    _atom_site_fract_z
    _atom_site_occupancy
    C1       C        0.35010    0.18500    0.10460    1.000
    C2       C        0.40090    0.09410    0.05140    1.000
    O1       O        0.45000    0.27050    0.15490    1.000
    O2       O        0.21460    0.17280    0.09530    1.000
    H1       H        0.43070    0.02790    0.08100    1.000
    H2       H        0.49470    0.16970    0.02270    1.000
    C3       C        0.81500    0.16510    0.10460    1.000
    C4       C        0.90590    0.30680    0.05140    1.000
    O3       O        0.72950    0.17950    0.15490    1.000
    O4       O        0.82720    0.04180    0.09530    1.000
    H3       H        0.97210    0.40280    0.08100    1.000
    H4       H        0.83030    0.32500    0.02270    1.000
    C5       C        0.83490    0.64990    0.10460    1.000
    C6       C        0.69320    0.59910    0.05140    1.000
    O5       O        0.82050    0.55000    0.15490    1.000
    O6       O        0.95820    0.78540    0.09530    1.000
    H5       H        0.59720    0.56930    0.08100    1.000
    H6       H        0.67500    0.50530    0.02270    1.000
    C7       C        0.35010    0.18500    0.39540    1.000
    C8       C        0.40090    0.09410    0.44860    1.000
    O7       O        0.45000    0.27050    0.34510    1.000
    O8       O        0.21460    0.17280    0.40470    1.000
    H7       H        0.43070    0.02790    0.41900    1.000
    H8       H        0.49470    0.16970    0.47730    1.000
    C9       C        0.81500    0.16510    0.39540    1.000
    C10      C        0.90590    0.30680    0.44860    1.000
    O9       O        0.72950    0.17950    0.34510    1.000
    O10      O        0.82720    0.04180    0.40470    1.000
    H9       H        0.97210    0.40280    0.41900    1.000
    H10      H        0.83030    0.32500    0.47730    1.000
    C11      C        0.83490    0.64990    0.39540    1.000
    C12      C        0.69320    0.59910    0.44860    1.000
    O11      O        0.82050    0.55000    0.34510    1.000
    O12      O        0.95820    0.78540    0.40470    1.000
    H11      H        0.59720    0.56930    0.41900    1.000
    H12      H        0.67500    0.50530    0.47730    1.000
    C13      C        0.18500    0.35010    0.89540    1.000
    C14      C        0.09410    0.40090    0.94860    1.000
    O13      O        0.27050    0.45000    0.84510    1.000
    O14      O        0.17280    0.21460    0.90470    1.000
    H13      H        0.02790    0.43070    0.91900    1.000
    H14      H        0.16970    0.49470    0.97730    1.000
    C15      C        0.16510    0.81500    0.89540    1.000
    C16      C        0.30680    0.90590    0.94860    1.000
    O15      O        0.17950    0.72950    0.84510    1.000
    O16      O        0.04180    0.82720    0.90470    1.000
    H15      H        0.40280    0.97210    0.91900    1.000
    H16      H        0.32500    0.83030    0.97730    1.000
    C17      C        0.64990    0.83490    0.89540    1.000
    C18      C        0.59910    0.69320    0.94860    1.000
    O17      O        0.55000    0.82050    0.84510    1.000
    O18      O        0.78540    0.95820    0.90470    1.000
    H17      H        0.56930    0.59720    0.91900    1.000
    H18      H        0.50530    0.67500    0.97730    1.000
    C19      C        0.18500    0.35010    0.60460    1.000
    C20      C        0.09410    0.40090    0.55140    1.000
    O19      O        0.27050    0.45000    0.65490    1.000
    O20      O        0.17280    0.21460    0.59530    1.000
    H19      H        0.02790    0.43070    0.58100    1.000
    H20      H        0.16970    0.49470    0.52270    1.000
    C21      C        0.16510    0.81500    0.60460    1.000
    C22      C        0.30680    0.90590    0.55140    1.000
    O21      O        0.17950    0.72950    0.65490    1.000
    O22      O        0.04180    0.82720    0.59530    1.000
    H21      H        0.40280    0.97210    0.58100    1.000
    H22      H        0.32500    0.83030    0.52270    1.000
    C23      C        0.64990    0.83490    0.60460    1.000
    C24      C        0.59910    0.69320    0.55140    1.000
    O23      O        0.55000    0.82050    0.65490    1.000
    O24      O        0.78540    0.95820    0.59530    1.000
    H23      H        0.56930    0.59720    0.58100    1.000
    H24      H        0.50530    0.67500    0.52270    1.000
    La1      La       0.66667    0.33333    0.25000    1.000
    La2      La       0.33333    0.66667    0.75000    1.000
    La3      La       0.00000    0.00000    0.00000    1.000
    La4      La       0.00000    0.00000    0.50000    1.000
    O25      O        0.27160    0.00000    0.00000    1.000
    O26      O        0.00000    0.27160    0.00000    1.000
    O27      O        0.72840    0.72840    0.00000    1.000
    O28      O        0.27160    0.00000    0.50000    1.000
    O29      O        0.00000    0.27160    0.50000    1.000
    O30      O        0.72840    0.72840    0.50000    1.000
