# CIF file generated by openbabel 3.1.0, see https://openbabel.org
data_I
_chemical_name_common 'ECEZAO_clean'
_cell_length_a 6.3805
_cell_length_b 10.056
_cell_length_c 11.2429
_cell_angle_alpha 116.565
_cell_angle_beta 96.3543
_cell_angle_gamma 90
_space_group_name_H-M_alt 'P 1'
_space_group_name_Hall 'P 1'
loop_
    _symmetry_equiv_pos_as_xyz
    x,y,z
loop_
    _atom_site_label
    _atom_site_type_symbol
    _atom_site_fract_x
    _atom_site_fract_y
    _atom_site_fract_z
    _atom_site_occupancy
    Ni1      Ni       0.00000    0.65028    0.00000    1.000
    Ni2      Ni       0.00000    0.34972    0.00000    1.000
    Ni3      Ni       0.50000    0.50000    0.00000    1.000
    H1       H        0.57590    0.62400    0.65400    1.000
    H2       H        0.41390    0.62060    0.61900    1.000
    H3       H        0.25090    0.56500    0.66040    1.000
    H4       H        0.86030    0.49250    0.56340    1.000
    H5       H        0.68740    0.59700    0.57060    1.000
    H6       H        0.42410    0.97000    0.34600    1.000
    H7       H        0.58610    0.00160    0.38100    1.000
    H8       H        0.74910    0.90460    0.33960    1.000
    H9       H        0.13970    0.92910    0.43660    1.000
    H10      H        0.31260    0.02640    0.42940    1.000
    H11      H        0.42410    0.37600    0.34600    1.000
    H12      H        0.58610    0.37940    0.38100    1.000
    H13      H        0.74910    0.43500    0.33960    1.000
    H14      H        0.13970    0.50750    0.43660    1.000
    H15      H        0.31260    0.40300    0.42940    1.000
    H16      H        0.57590    0.03000    0.65400    1.000
    H17      H        0.41390    0.99840    0.61900    1.000
    H18      H        0.25090    0.09540    0.66040    1.000
    H19      H        0.86030    0.07090    0.56340    1.000
    H20      H        0.68740    0.97360    0.57060    1.000
    H21      H        0.84270    0.57650    0.15300    1.000
    H22      H        0.15730    0.42350    0.84700    1.000
    C1       C        0.57030    0.52580    0.63480    1.000
    C2       C        0.35000    0.51140    0.59220    1.000
    C3       C        0.72520    0.49610    0.54280    1.000
    C4       C        0.64990    0.55990    0.77720    1.000
    C5       C        0.42970    0.89100    0.36520    1.000
    C6       C        0.65000    0.91920    0.40780    1.000
    C7       C        0.27480    0.95330    0.45720    1.000
    C8       C        0.35010    0.78270    0.22280    1.000
    C9       C        0.42970    0.47420    0.36520    1.000
    C10      C        0.65000    0.48860    0.40780    1.000
    C11      C        0.27480    0.50390    0.45720    1.000
    C12      C        0.35010    0.44010    0.22280    1.000
    C13      C        0.57030    0.10900    0.63480    1.000
    C14      C        0.35000    0.08080    0.59220    1.000
    C15      C        0.72520    0.04670    0.54280    1.000
    C16      C        0.64990    0.21730    0.77720    1.000
    O1       O        0.84470    0.56950    0.81020    1.000
    O2       O        0.51160    0.57350    0.85440    1.000
    O3       O        0.15530    0.75930    0.18980    1.000
    O4       O        0.48840    0.71910    0.14560    1.000
    O5       O        0.15530    0.43050    0.18980    1.000
    O6       O        0.48840    0.42650    0.14560    1.000
    O7       O        0.84470    0.24070    0.81020    1.000
    O8       O        0.51160    0.28090    0.85440    1.000
    O9       O        0.81700    0.52880    0.05760    1.000
    O10      O        0.18300    0.47120    0.94240    1.000
