# CIF file generated by openbabel 3.1.0, see https://openbabel.org
data_I
_chemical_name_common 'image0'
_cell_length_a 31.928
_cell_length_b 16.003
_cell_length_c 10.329
_cell_angle_alpha 90
_cell_angle_beta 90
_cell_angle_gamma 90
_space_group_name_H-M_alt 'P 1'
_space_group_name_Hall 'P 1'
loop_
    _symmetry_equiv_pos_as_xyz
    x,y,z
loop_
    _atom_site_label
    _atom_site_type_symbol
    _atom_site_fract_x
    _atom_site_fract_y
    _atom_site_fract_z
    _atom_site_occupancy
    Zn1      Zn       0.29347    0.05792    0.39859    1.000
    N1       N        0.28311    0.18030    0.40800    1.000
    C1       C        0.37637    0.04430    0.48150    1.000
    O1       O        0.36358    0.08090    0.58350    1.000
    C2       C        0.42213    0.02210    0.46760    1.000
    N2       N        0.24710    0.20900    0.34610    1.000
    H1       H        0.35410    0.20130    0.52640    1.000
    C3       C        0.43779    0.99480    0.34960    1.000
    H2       H        0.41970    0.98770    0.27980    1.000
    N3       N        0.26039    0.00380    0.54040    1.000
    C4       C        0.44874    0.03300    0.57050    1.000
    H3       H        0.43810    0.05210    0.64890    1.000
    N4       N        0.22678    0.95480    0.51440    1.000
    C5       C        0.49234    0.01490    0.55960    1.000
    N5       N        0.20756    0.93640    0.62160    1.000
    C6       C        0.51988    0.02240    0.66430    1.000
    H4       H        0.50970    0.03880    0.74470    1.000
    N6       N        0.22830    0.97340    0.72330    1.000
    N7       N        0.28857    0.06380    0.73610    1.000
    H5       H        0.28560    0.07060    0.82210    1.000
    H6       H        0.30970    0.08910    0.69410    1.000
    C7       C        0.26099    0.01440    0.66990    1.000
    O2       O        0.35261    0.02660    0.38570    1.000
    Zn2      Zn       0.20653    0.94208    0.89859    1.000
    N8       N        0.21689    0.81970    0.90800    1.000
    C8       C        0.12363    0.95570    0.98150    1.000
    O3       O        0.13642    0.91910    0.08350    1.000
    C9       C        0.07787    0.97790    0.96760    1.000
    N9       N        0.25290    0.79100    0.84610    1.000
    H7       H        0.14590    0.79870    0.02640    1.000
    C10      C        0.06221    0.00520    0.84960    1.000
    H8       H        0.08030    0.01230    0.77980    1.000
    N10      N        0.23961    0.99620    0.04040    1.000
    C11      C        0.05126    0.96700    0.07050    1.000
    H9       H        0.06190    0.94790    0.14890    1.000
    N11      N        0.27322    0.04520    0.01440    1.000
    C12      C        0.00766    0.98510    0.05960    1.000
    N12      N        0.29244    0.06360    0.12160    1.000
    C13      C        0.98012    0.97760    0.16430    1.000
    H10      H        0.99030    0.96120    0.24470    1.000
    N13      N        0.27170    0.02660    0.22330    1.000
    N14      N        0.21143    0.93620    0.23610    1.000
    H11      H        0.21440    0.92940    0.32210    1.000
    H12      H        0.19030    0.91090    0.19410    1.000
    C14      C        0.23901    0.98560    0.16990    1.000
    O4       O        0.14739    0.97340    0.88570    1.000
    Zn3      Zn       0.70653    0.55792    0.60141    1.000
    N15      N        0.71689    0.68030    0.59200    1.000
    C15      C        0.62363    0.54430    0.51850    1.000
    O5       O        0.63642    0.58090    0.41650    1.000
    C16      C        0.57787    0.52210    0.53240    1.000
    N16      N        0.75290    0.70900    0.65390    1.000
    H13      H        0.64590    0.70130    0.47360    1.000
    C17      C        0.56221    0.49480    0.65040    1.000
    H14      H        0.58030    0.48770    0.72020    1.000
    N17      N        0.73961    0.50380    0.45960    1.000
    C18      C        0.55126    0.53300    0.42950    1.000
    H15      H        0.56190    0.55210    0.35110    1.000
    N18      N        0.77322    0.45480    0.48560    1.000
    C19      C        0.50766    0.51490    0.44040    1.000
    N19      N        0.79244    0.43640    0.37840    1.000
    C20      C        0.48012    0.52240    0.33570    1.000
    H16      H        0.49030    0.53880    0.25530    1.000
    N20      N        0.77170    0.47340    0.27670    1.000
    N21      N        0.71143    0.56380    0.26390    1.000
    H17      H        0.71440    0.57060    0.17790    1.000
    H18      H        0.69030    0.58910    0.30590    1.000
    C21      C        0.73901    0.51440    0.33010    1.000
    O6       O        0.64739    0.52660    0.61430    1.000
    Zn4      Zn       0.79347    0.44208    0.10141    1.000
    N22      N        0.78311    0.31970    0.09200    1.000
    C22      C        0.87637    0.45570    0.01850    1.000
    O7       O        0.86358    0.41910    0.91650    1.000
    C23      C        0.92213    0.47790    0.03240    1.000
    N23      N        0.74710    0.29100    0.15390    1.000
    H19      H        0.85410    0.29870    0.97360    1.000
    C24      C        0.93779    0.50520    0.15040    1.000
    H20      H        0.91970    0.51230    0.22020    1.000
    N24      N        0.76039    0.49620    0.95960    1.000
    C25      C        0.94874    0.46700    0.92950    1.000
    H21      H        0.93810    0.44790    0.85110    1.000
    N25      N        0.72678    0.54520    0.98560    1.000
    C26      C        0.99234    0.48510    0.94040    1.000
    N26      N        0.70756    0.56360    0.87840    1.000
    C27      C        0.01988    0.47760    0.83570    1.000
    H22      H        0.00970    0.46120    0.75530    1.000
    N27      N        0.72830    0.52660    0.77670    1.000
    N28      N        0.78857    0.43620    0.76390    1.000
    H23      H        0.78560    0.42940    0.67790    1.000
    H24      H        0.80970    0.41090    0.80590    1.000
    C28      C        0.76099    0.48560    0.83010    1.000
    O8       O        0.85261    0.47340    0.11430    1.000
    Zn5      Zn       0.70653    0.94208    0.60141    1.000
    N29      N        0.71689    0.81970    0.59200    1.000
    C29      C        0.62363    0.95570    0.51850    1.000
    O9       O        0.63642    0.91910    0.41650    1.000
    C30      C        0.57787    0.97790    0.53240    1.000
    N30      N        0.75290    0.79100    0.65390    1.000
    H25      H        0.64590    0.79870    0.47360    1.000
    C31      C        0.56221    0.00520    0.65040    1.000
    H26      H        0.58030    0.01230    0.72020    1.000
    N31      N        0.73961    0.99620    0.45960    1.000
    C32      C        0.55126    0.96700    0.42950    1.000
    H27      H        0.56190    0.94790    0.35110    1.000
    N32      N        0.77322    0.04520    0.48560    1.000
    C33      C        0.50766    0.98510    0.44040    1.000
    N33      N        0.79244    0.06360    0.37840    1.000
    C34      C        0.48012    0.97760    0.33570    1.000
    H28      H        0.49030    0.96120    0.25530    1.000
    N34      N        0.77170    0.02660    0.27670    1.000
    N35      N        0.71143    0.93620    0.26390    1.000
    H29      H        0.71440    0.92940    0.17790    1.000
    H30      H        0.69030    0.91090    0.30590    1.000
    C35      C        0.73901    0.98560    0.33010    1.000
    O10      O        0.64739    0.97340    0.61430    1.000
    Zn6      Zn       0.79347    0.05792    0.10141    1.000
    N36      N        0.78311    0.18030    0.09200    1.000
    C36      C        0.87637    0.04430    0.01850    1.000
    O11      O        0.86358    0.08090    0.91650    1.000
    C37      C        0.92213    0.02210    0.03240    1.000
    N37      N        0.74710    0.20900    0.15390    1.000
    H31      H        0.85410    0.20130    0.97360    1.000
    C38      C        0.93779    0.99480    0.15040    1.000
    H32      H        0.91970    0.98770    0.22020    1.000
    N38      N        0.76039    0.00380    0.95960    1.000
    C39      C        0.94874    0.03300    0.92950    1.000
    H33      H        0.93810    0.05210    0.85110    1.000
    N39      N        0.72678    0.95480    0.98560    1.000
    C40      C        0.99234    0.01490    0.94040    1.000
    N40      N        0.70756    0.93640    0.87840    1.000
    C41      C        0.01988    0.02240    0.83570    1.000
    H34      H        0.00970    0.03880    0.75530    1.000
    N41      N        0.72830    0.97340    0.77670    1.000
    N42      N        0.78857    0.06380    0.76390    1.000
    H35      H        0.78560    0.07060    0.67790    1.000
    H36      H        0.80970    0.08910    0.80590    1.000
    C42      C        0.76099    0.01440    0.83010    1.000
    O12      O        0.85261    0.02660    0.11430    1.000
    Zn7      Zn       0.29347    0.44208    0.39859    1.000
    N43      N        0.28311    0.31970    0.40800    1.000
    C43      C        0.37637    0.45570    0.48150    1.000
    O13      O        0.36358    0.41910    0.58350    1.000
    C44      C        0.42213    0.47790    0.46760    1.000
    N44      N        0.24710    0.29100    0.34610    1.000
    H37      H        0.35410    0.29870    0.52640    1.000
    C45      C        0.43779    0.50520    0.34960    1.000
    H38      H        0.41970    0.51230    0.27980    1.000
    N45      N        0.26039    0.49620    0.54040    1.000
    C46      C        0.44874    0.46700    0.57050    1.000
    H39      H        0.43810    0.44790    0.64890    1.000
    N46      N        0.22678    0.54520    0.51440    1.000
    C47      C        0.49234    0.48510    0.55960    1.000
    N47      N        0.20756    0.56360    0.62160    1.000
    C48      C        0.51988    0.47760    0.66430    1.000
    H40      H        0.50970    0.46120    0.74470    1.000
    N48      N        0.22830    0.52660    0.72330    1.000
    N49      N        0.28857    0.43620    0.73610    1.000
    H41      H        0.28560    0.42940    0.82210    1.000
    H42      H        0.30970    0.41090    0.69410    1.000
    C49      C        0.26099    0.48560    0.66990    1.000
    O14      O        0.35261    0.47340    0.38570    1.000
    Zn8      Zn       0.20653    0.55792    0.89859    1.000
    N50      N        0.21689    0.68030    0.90800    1.000
    C50      C        0.12363    0.54430    0.98150    1.000
    O15      O        0.13642    0.58090    0.08350    1.000
    C51      C        0.07787    0.52210    0.96760    1.000
    N51      N        0.25290    0.70900    0.84610    1.000
    H43      H        0.14590    0.70130    0.02640    1.000
    C52      C        0.06221    0.49480    0.84960    1.000
    H44      H        0.08030    0.48770    0.77980    1.000
    N52      N        0.23961    0.50380    0.04040    1.000
    C53      C        0.05126    0.53300    0.07050    1.000
    H45      H        0.06190    0.55210    0.14890    1.000
    N53      N        0.27322    0.45480    0.01440    1.000
    C54      C        0.00766    0.51490    0.05960    1.000
    N54      N        0.29244    0.43640    0.12160    1.000
    C55      C        0.98012    0.52240    0.16430    1.000
    H46      H        0.99030    0.53880    0.24470    1.000
    N55      N        0.27170    0.47340    0.22330    1.000
    N56      N        0.21143    0.56380    0.23610    1.000
    H47      H        0.21440    0.57060    0.32210    1.000
    H48      H        0.19030    0.58910    0.19410    1.000
    C56      C        0.23901    0.51440    0.16990    1.000
    O16      O        0.14739    0.52660    0.88570    1.000
    N57      N        0.34162    0.25000    0.50630    1.000
    C57      C        0.30371    0.25000    0.44360    1.000
    N58      N        0.15838    0.75000    0.00630    1.000
    C58      C        0.19629    0.75000    0.94360    1.000
    N59      N        0.65838    0.75000    0.49370    1.000
    C59      C        0.69629    0.75000    0.55640    1.000
    N60      N        0.84162    0.25000    0.99370    1.000
    C60      C        0.80371    0.25000    0.05640    1.000
