# CIF file generated by openbabel 3.1.0, see https://openbabel.org
data_I
_chemical_name_common 'image0'
_cell_length_a 11.921
_cell_length_b 12.527
_cell_length_c 12.552
_cell_angle_alpha 90
_cell_angle_beta 98.87
_cell_angle_gamma 90
_space_group_name_H-M_alt 'P 1'
_space_group_name_Hall 'P 1'
loop_
    _symmetry_equiv_pos_as_xyz
    x,y,z
loop_
    _atom_site_label
    _atom_site_type_symbol
    _atom_site_fract_x
    _atom_site_fract_y
    _atom_site_fract_z
    _atom_site_occupancy
    C1       C        0.48420    0.33900    0.49020    1.000
    C2       C        0.38870    0.37460    0.53090    1.000
    H1       H        0.32660    0.40170    0.48500    1.000
    C3       C        0.38750    0.36900    0.64070    1.000
    C4       C        0.48210    0.33330    0.71140    1.000
    H2       H        0.48040    0.32890    0.78510    1.000
    C5       C        0.57880    0.30440    0.66910    1.000
    C6       C        0.57970    0.30390    0.55960    1.000
    H3       H        0.64340    0.28030    0.53210    1.000
    C7       C        0.48700    0.34120    0.37250    1.000
    C8       C        0.27950    0.38070    0.78450    1.000
    H4       H        0.30320    0.30720    0.80300    1.000
    C9       C        0.35560    0.45700    0.86100    1.000
    C10      C        0.15550    0.39240    0.79750    1.000
    H5       H        0.11060    0.34240    0.75110    1.000
    H6       H        0.13040    0.46370    0.77840    1.000
    H7       H        0.14700    0.37850    0.87100    1.000
    C11      C        0.69140    0.29500    0.84420    1.000
    H8       H        0.65990    0.36560    0.85520    1.000
    C12      C        0.63210    0.21340    0.90640    1.000
    C13      C        0.81850    0.29830    0.88350    1.000
    H9       H        0.85280    0.35140    0.84370    1.000
    H10      H        0.85100    0.22980    0.87270    1.000
    H11      H        0.83200    0.31580    0.95880    1.000
    C14      C        0.02080    0.54650    0.09000    1.000
    C15      C        0.96210    0.54870    0.98770    1.000
    H12      H        0.99930    0.53480    0.92930    1.000
    C16      C        0.84630    0.57170    0.97100    1.000
    C17      C        0.79040    0.59120    0.05740    1.000
    H13      H        0.71310    0.60630    0.04620    1.000
    C18      C        0.85070    0.58810    0.16160    1.000
    C19      C        0.96680    0.56630    0.17900    1.000
    H14      H        0.00740    0.56500    0.24840    1.000
    C20      C        0.14590    0.52000    0.10790    1.000
    C21      C        0.68710    0.57240    0.24980    1.000
    H15      H        0.63640    0.61880    0.20130    1.000
    C22      C        0.67330    0.45750    0.21010    1.000
    C23      C        0.65870    0.58110    0.36200    1.000
    H16      H        0.67500    0.65210    0.38880    1.000
    H17      H        0.70350    0.53080    0.40810    1.000
    H18      H        0.57960    0.56600    0.36080    1.000
    C24      C        0.68170    0.59990    0.83640    1.000
    H19      H        0.63410    0.55350    0.87360    1.000
    C25      C        0.66230    0.71590    0.86420    1.000
    C26      C        0.65110    0.58510    0.71590    1.000
    H20      H        0.66210    0.51180    0.69780    1.000
    H21      H        0.69870    0.62980    0.67970    1.000
    H22      H        0.57300    0.60430    0.69370    1.000
    O1       O        0.56350    0.28610    0.33830    1.000
    O2       O        0.41630    0.39760    0.31450    1.000
    O3       O        0.28800    0.39810    0.67580    1.000
    O4       O        0.37900    0.54450    0.82620    1.000
    O5       O        0.38940    0.42080    0.95420    1.000
    O6       O        0.67810    0.27490    0.73250    1.000
    O7       O        0.62570    0.23770    0.00170    1.000
    O8       O        0.59270    0.12870    0.85970    1.000
    O9       O        0.19570    0.49670    0.19980    1.000
    O10      O        0.19770    0.52170    0.02760    1.000
    O11      O        0.79700    0.57000    0.86450    1.000
    O12      O        0.74330    0.78080    0.87640    1.000
    O13      O        0.56160    0.74560    0.87050    1.000
    O14      O        0.80190    0.60590    0.25150    1.000
    O15      O        0.75030    0.39150    0.23360    1.000
    O16      O        0.57700    0.43170    0.15620    1.000
    O17      O        0.76230    0.16560    0.35080    1.000
    H23      H        0.77010    0.10890    0.31480    1.000
    H24      H        0.80300    0.16080    0.41270    1.000
    Sm1      Sm       0.37249    0.44591    0.13211    1.000
    Sm2      Sm       0.64169    0.22916    0.18787    1.000
    C27      C        0.51580    0.83900    0.50980    1.000
    C28      C        0.61130    0.87460    0.46910    1.000
    H25      H        0.67340    0.90170    0.51500    1.000
    C29      C        0.61250    0.86900    0.35930    1.000
    C30      C        0.51790    0.83330    0.28860    1.000
    H26      H        0.51960    0.82890    0.21490    1.000
    C31      C        0.42120    0.80440    0.33090    1.000
    C32      C        0.42030    0.80390    0.44040    1.000
    H27      H        0.35660    0.78030    0.46790    1.000
    C33      C        0.51300    0.84120    0.62750    1.000
    C34      C        0.72050    0.88070    0.21550    1.000
    H28      H        0.69680    0.80720    0.19700    1.000
    C35      C        0.64440    0.95700    0.13900    1.000
    C36      C        0.84450    0.89240    0.20250    1.000
    H29      H        0.88940    0.84240    0.24890    1.000
    H30      H        0.86960    0.96370    0.22160    1.000
    H31      H        0.85300    0.87850    0.12900    1.000
    C37      C        0.30860    0.79500    0.15580    1.000
    H32      H        0.34010    0.86560    0.14480    1.000
    C38      C        0.36790    0.71340    0.09360    1.000
    C39      C        0.18150    0.79830    0.11650    1.000
    H33      H        0.14720    0.85140    0.15630    1.000
    H34      H        0.14900    0.72980    0.12730    1.000
    H35      H        0.16800    0.81580    0.04120    1.000
    C40      C        0.97920    0.04650    0.91000    1.000
    C41      C        0.03790    0.04870    0.01230    1.000
    H36      H        0.00070    0.03480    0.07070    1.000
    C42      C        0.15370    0.07170    0.02900    1.000
    C43      C        0.20960    0.09120    0.94260    1.000
    H37      H        0.28690    0.10630    0.95380    1.000
    C44      C        0.14930    0.08810    0.83840    1.000
    C45      C        0.03320    0.06630    0.82100    1.000
    H38      H        0.99260    0.06500    0.75160    1.000
    C46      C        0.85410    0.02000    0.89210    1.000
    C47      C        0.31290    0.07240    0.75020    1.000
    H39      H        0.36360    0.11880    0.79870    1.000
    C48      C        0.32670    0.95750    0.78990    1.000
    C49      C        0.34130    0.08110    0.63800    1.000
    H40      H        0.32500    0.15210    0.61120    1.000
    H41      H        0.29650    0.03080    0.59190    1.000
    H42      H        0.42040    0.06600    0.63920    1.000
    C50      C        0.31830    0.09990    0.16360    1.000
    H43      H        0.36590    0.05350    0.12640    1.000
    C51      C        0.33770    0.21590    0.13580    1.000
    C52      C        0.34890    0.08510    0.28410    1.000
    H44      H        0.33790    0.01180    0.30220    1.000
    H45      H        0.30130    0.12980    0.32030    1.000
    H46      H        0.42700    0.10430    0.30630    1.000
    O18      O        0.43650    0.78610    0.66170    1.000
    O19      O        0.58370    0.89760    0.68550    1.000
    O20      O        0.71200    0.89810    0.32420    1.000
    O21      O        0.62100    0.04450    0.17380    1.000
    O22      O        0.61060    0.92080    0.04580    1.000
    O23      O        0.32190    0.77490    0.26750    1.000
    O24      O        0.37430    0.73770    0.99830    1.000
    O25      O        0.40730    0.62870    0.14030    1.000
    O26      O        0.80430    0.99670    0.80020    1.000
    O27      O        0.80230    0.02170    0.97240    1.000
    O28      O        0.20300    0.07000    0.13550    1.000
    O29      O        0.25670    0.28080    0.12360    1.000
    O30      O        0.43840    0.24560    0.12950    1.000
    O31      O        0.19810    0.10590    0.74850    1.000
    O32      O        0.24970    0.89150    0.76640    1.000
    O33      O        0.42300    0.93170    0.84380    1.000
    O34      O        0.23770    0.66560    0.64920    1.000
    H47      H        0.22990    0.60890    0.68520    1.000
    H48      H        0.19700    0.66080    0.58730    1.000
    Sm3      Sm       0.62751    0.94591    0.86789    1.000
    Sm4      Sm       0.35831    0.72916    0.81213    1.000
