# CIF file generated by openbabel 3.1.0, see https://openbabel.org
data_I
_chemical_name_common 'image0'
_cell_length_a 8.38
_cell_length_b 20.9662
_cell_length_c 13.0999
_cell_angle_alpha 90
_cell_angle_beta 95.038
_cell_angle_gamma 90
_space_group_name_H-M_alt 'P 1'
_space_group_name_Hall 'P 1'
loop_
    _symmetry_equiv_pos_as_xyz
    x,y,z
loop_
    _atom_site_label
    _atom_site_type_symbol
    _atom_site_fract_x
    _atom_site_fract_y
    _atom_site_fract_z
    _atom_site_occupancy
    Zn1      Zn       0.63770    0.29106    0.85556    1.000
    O1       O        0.34250    0.36570    0.27690    1.000
    C1       C        0.50120    0.48920    0.44870    1.000
    O2       O        0.69020    0.52360    0.21530    1.000
    O3       O        0.73470    0.18800    0.22900    1.000
    O4       O        0.66490    0.08950    0.26600    1.000
    O5       O        0.75240    0.21270    0.90220    1.000
    N1       N        0.52160    0.44300    0.24930    1.000
    N2       N        0.61710    0.34750    0.97970    1.000
    C2       C        0.55540    0.41180    0.15560    1.000
    C3       C        0.61040    0.49810    0.27620    1.000
    C4       C        0.79530    0.10540    0.11560    1.000
    C5       C        0.42260    0.40910    0.31340    1.000
    C6       C        0.59890    0.52290    0.38280    1.000
    C7       C        0.67850    0.57730    0.41460    1.000
    H1       H        0.73690    0.60000    0.36950    1.000
    C8       C        0.41470    0.43390    0.41680    1.000
    C9       C        0.67160    0.59850    0.51520    1.000
    H2       H        0.72650    0.63540    0.53660    1.000
    C10      C        0.72280    0.12930    0.21170    1.000
    C11      C        0.67290    0.36500    0.15940    1.000
    H3       H        0.73200    0.35490    0.22070    1.000
    C12      C        0.50490    0.39270    0.97730    1.000
    H4       H        0.44770    0.40220    0.91510    1.000
    C13      C        0.69900    0.33440    0.07020    1.000
    H5       H        0.77740    0.30300    0.07230    1.000
    C14      C        0.47000    0.42640    0.06400    1.000
    H6       H        0.39140    0.45790    0.06030    1.000
    S1       S        0.89920    0.08877    0.93084    1.000
    S2       S        0.90540    0.03528    0.14046    1.000
    C15      C        0.79110    0.12910    0.02060    1.000
    C16      C        0.96000    0.02560    0.01450    1.000
    O6       O        0.57510    0.20280    0.01800    1.000
    C17      C        0.69600    0.18630    0.97940    1.000
    Zn2      Zn       0.36230    0.79106    0.64444    1.000
    O7       O        0.65750    0.86570    0.22310    1.000
    C18      C        0.49880    0.98920    0.05130    1.000
    O8       O        0.30980    0.02360    0.28470    1.000
    O9       O        0.26530    0.68800    0.27100    1.000
    O10      O        0.33510    0.58950    0.23400    1.000
    O11      O        0.24760    0.71270    0.59780    1.000
    N3       N        0.47840    0.94300    0.25070    1.000
    N4       N        0.38290    0.84750    0.52030    1.000
    C19      C        0.44460    0.91180    0.34440    1.000
    C20      C        0.38960    0.99810    0.22380    1.000
    C21      C        0.20470    0.60540    0.38440    1.000
    C22      C        0.57740    0.90910    0.18660    1.000
    C23      C        0.40110    0.02290    0.11720    1.000
    C24      C        0.32150    0.07730    0.08540    1.000
    H7       H        0.26310    0.10000    0.13050    1.000
    C25      C        0.58530    0.93390    0.08320    1.000
    C26      C        0.32840    0.09850    0.98480    1.000
    H8       H        0.27350    0.13540    0.96340    1.000
    C27      C        0.27720    0.62930    0.28830    1.000
    C28      C        0.32710    0.86500    0.34060    1.000
    H9       H        0.26800    0.85490    0.27930    1.000
    C29      C        0.49510    0.89270    0.52270    1.000
    H10      H        0.55230    0.90220    0.58490    1.000
    C30      C        0.30100    0.83440    0.42980    1.000
    H11      H        0.22260    0.80300    0.42770    1.000
    C31      C        0.53000    0.92640    0.43600    1.000
    H12      H        0.60860    0.95790    0.43970    1.000
    S3       S        0.10080    0.58877    0.56916    1.000
    S4       S        0.09460    0.53528    0.35954    1.000
    C32      C        0.20890    0.62910    0.47940    1.000
    C33      C        0.04000    0.52560    0.48550    1.000
    O12      O        0.42490    0.70280    0.48200    1.000
    C34      C        0.30400    0.68630    0.52060    1.000
    Zn3      Zn       0.36230    0.70894    0.14444    1.000
    O13      O        0.65750    0.63430    0.72310    1.000
    C35      C        0.49880    0.51080    0.55130    1.000
    O14      O        0.30980    0.47640    0.78470    1.000
    O15      O        0.26530    0.81200    0.77100    1.000
    O16      O        0.33510    0.91050    0.73400    1.000
    O17      O        0.24760    0.78730    0.09780    1.000
    N5       N        0.47840    0.55700    0.75070    1.000
    N6       N        0.38290    0.65250    0.02030    1.000
    C36      C        0.44460    0.58820    0.84440    1.000
    C37      C        0.38960    0.50190    0.72380    1.000
    C38      C        0.20470    0.89460    0.88440    1.000
    C39      C        0.57740    0.59090    0.68660    1.000
    C40      C        0.40110    0.47710    0.61720    1.000
    C41      C        0.32150    0.42270    0.58540    1.000
    H13      H        0.26310    0.40000    0.63050    1.000
    C42      C        0.58530    0.56610    0.58320    1.000
    C43      C        0.32840    0.40150    0.48480    1.000
    H14      H        0.27350    0.36460    0.46340    1.000
    C44      C        0.27720    0.87070    0.78830    1.000
    C45      C        0.32710    0.63500    0.84060    1.000
    H15      H        0.26800    0.64510    0.77930    1.000
    C46      C        0.49510    0.60730    0.02270    1.000
    H16      H        0.55230    0.59780    0.08490    1.000
    C47      C        0.30100    0.66560    0.92980    1.000
    H17      H        0.22260    0.69700    0.92770    1.000
    C48      C        0.53000    0.57360    0.93600    1.000
    H18      H        0.60860    0.54210    0.93970    1.000
    S5       S        0.10080    0.91123    0.06916    1.000
    S6       S        0.09460    0.96472    0.85954    1.000
    C49      C        0.20890    0.87090    0.97940    1.000
    C50      C        0.04000    0.97440    0.98550    1.000
    O18      O        0.42490    0.79720    0.98200    1.000
    C51      C        0.30400    0.81370    0.02060    1.000
    Zn4      Zn       0.63770    0.20894    0.35556    1.000
    O19      O        0.34250    0.13430    0.77690    1.000
    C52      C        0.50120    0.01080    0.94870    1.000
    O20      O        0.69020    0.97640    0.71530    1.000
    O21      O        0.73470    0.31200    0.72900    1.000
    O22      O        0.66490    0.41050    0.76600    1.000
    O23      O        0.75240    0.28730    0.40220    1.000
    N7       N        0.52160    0.05700    0.74930    1.000
    N8       N        0.61710    0.15250    0.47970    1.000
    C53      C        0.55540    0.08820    0.65560    1.000
    C54      C        0.61040    0.00190    0.77620    1.000
    C55      C        0.79530    0.39460    0.61560    1.000
    C56      C        0.42260    0.09090    0.81340    1.000
    C57      C        0.59890    0.97710    0.88280    1.000
    C58      C        0.67850    0.92270    0.91460    1.000
    H19      H        0.73690    0.90000    0.86950    1.000
    C59      C        0.41470    0.06610    0.91680    1.000
    C60      C        0.67160    0.90150    0.01520    1.000
    H20      H        0.72650    0.86460    0.03660    1.000
    C61      C        0.72280    0.37070    0.71170    1.000
    C62      C        0.67290    0.13500    0.65940    1.000
    H21      H        0.73200    0.14510    0.72070    1.000
    C63      C        0.50490    0.10730    0.47730    1.000
    H22      H        0.44770    0.09780    0.41510    1.000
    C64      C        0.69900    0.16560    0.57020    1.000
    H23      H        0.77740    0.19700    0.57230    1.000
    C65      C        0.47000    0.07360    0.56400    1.000
    H24      H        0.39140    0.04210    0.56030    1.000
    S7       S        0.89920    0.41123    0.43084    1.000
    S8       S        0.90540    0.46472    0.64046    1.000
    C66      C        0.79110    0.37090    0.52060    1.000
    C67      C        0.96000    0.47440    0.51450    1.000
    O24      O        0.57510    0.29720    0.51800    1.000
    C68      C        0.69600    0.31370    0.47940    1.000
