# CIF file generated by openbabel 3.1.0, see https://openbabel.org
data_I
_chemical_name_common 'image0'
_cell_length_a 33.856
_cell_length_b 33.856
_cell_length_c 8.4224
_cell_angle_alpha 90
_cell_angle_beta 90
_cell_angle_gamma 120
_space_group_name_H-M_alt 'P 1'
_space_group_name_Hall 'P 1'
loop_
    _symmetry_equiv_pos_as_xyz
    x,y,z
loop_
    _atom_site_label
    _atom_site_type_symbol
    _atom_site_fract_x
    _atom_site_fract_y
    _atom_site_fract_z
    _atom_site_occupancy
    Ag1      Ag       0.14736    0.32092    0.50424    1.000
    O1       O        0.33504    0.32901    0.78640    1.000
    N1       N        0.20620    0.34070    0.65930    1.000
    N2       N        0.27750    0.19610    0.61490    1.000
    C1       C        0.21940    0.37660    0.76170    1.000
    H1       H        0.20290    0.39240    0.76160    1.000
    C2       C        0.25550    0.39060    0.86450    1.000
    H2       H        0.26380    0.41580    0.93330    1.000
    C3       C        0.27920    0.36770    0.86590    1.000
    H3       H        0.30460    0.37740    0.93480    1.000
    C4       C        0.26640    0.33050    0.76700    1.000
    C5       C        0.22940    0.31810    0.66570    1.000
    H4       H        0.22010    0.29250    0.59810    1.000
    C6       C        0.29340    0.30690    0.76290    1.000
    C7       C        0.27030    0.25730    0.72890    1.000
    C8       C        0.22740    0.22680    0.78520    1.000
    H5       H        0.21010    0.23690    0.84360    1.000
    C9       C        0.21030    0.18100    0.75380    1.000
    H6       H        0.18090    0.15910    0.79130    1.000
    C10      C        0.23580    0.16720    0.66870    1.000
    H7       H        0.22320    0.13560    0.64710    1.000
    C11      C        0.29480    0.24100    0.64620    1.000
    H8       H        0.32470    0.26210    0.61040    1.000
    Ag2      Ag       0.81403    0.65425    0.83757    1.000
    O2       O        0.00171    0.66234    0.11973    1.000
    N3       N        0.87287    0.67403    0.99263    1.000
    N4       N        0.94417    0.52943    0.94823    1.000
    C12      C        0.88607    0.70993    0.09503    1.000
    H9       H        0.86957    0.72573    0.09493    1.000
    C13      C        0.92217    0.72393    0.19783    1.000
    H10      H        0.93047    0.74913    0.26663    1.000
    C14      C        0.94587    0.70103    0.19923    1.000
    H11      H        0.97127    0.71073    0.26813    1.000
    C15      C        0.93307    0.66383    0.10033    1.000
    C16      C        0.89607    0.65143    0.99903    1.000
    H12      H        0.88677    0.62583    0.93143    1.000
    C17      C        0.96007    0.64023    0.09623    1.000
    C18      C        0.93697    0.59063    0.06223    1.000
    C19      C        0.89407    0.56013    0.11853    1.000
    H13      H        0.87677    0.57023    0.17693    1.000
    C20      C        0.87697    0.51433    0.08713    1.000
    H14      H        0.84757    0.49243    0.12463    1.000
    C21      C        0.90247    0.50053    0.00203    1.000
    H15      H        0.88987    0.46893    0.98043    1.000
    C22      C        0.96147    0.57433    0.97953    1.000
    H16      H        0.99137    0.59543    0.94373    1.000
    Ag3      Ag       0.48069    0.98759    0.17091    1.000
    O3       O        0.66837    0.99568    0.45307    1.000
    N5       N        0.53953    0.00737    0.32597    1.000
    N6       N        0.61083    0.86277    0.28157    1.000
    C23      C        0.55273    0.04327    0.42837    1.000
    H17      H        0.53623    0.05907    0.42827    1.000
    C24      C        0.58883    0.05727    0.53117    1.000
    H18      H        0.59713    0.08247    0.59997    1.000
    C25      C        0.61253    0.03437    0.53257    1.000
    H19      H        0.63793    0.04407    0.60147    1.000
    C26      C        0.59973    0.99717    0.43367    1.000
    C27      C        0.56273    0.98477    0.33237    1.000
    H20      H        0.55343    0.95917    0.26477    1.000
    C28      C        0.62673    0.97357    0.42957    1.000
    C29      C        0.60363    0.92397    0.39557    1.000
    C30      C        0.56073    0.89347    0.45187    1.000
    H21      H        0.54343    0.90357    0.51027    1.000
    C31      C        0.54363    0.84767    0.42047    1.000
    H22      H        0.51423    0.82577    0.45797    1.000
    C32      C        0.56913    0.83387    0.33537    1.000
    H23      H        0.55653    0.80227    0.31377    1.000
    C33      C        0.62813    0.90767    0.31287    1.000
    H24      H        0.65803    0.92877    0.27707    1.000
    Ag4      Ag       0.67908    0.82644    0.50424    1.000
    O4       O        0.67099    0.00603    0.78640    1.000
    N7       N        0.65930    0.86550    0.65930    1.000
    N8       N        0.80390    0.08140    0.61490    1.000
    C34      C        0.62340    0.84280    0.76170    1.000
    H25      H        0.60760    0.81050    0.76160    1.000
    C35      C        0.60940    0.86490    0.86450    1.000
    H26      H        0.58420    0.84800    0.93330    1.000
    C36      C        0.63230    0.91150    0.86590    1.000
    H27      H        0.62260    0.92720    0.93480    1.000
    C37      C        0.66950    0.93590    0.76700    1.000
    C38      C        0.68190    0.91130    0.66570    1.000
    H28      H        0.70750    0.92760    0.59810    1.000
    C39      C        0.69310    0.98650    0.76290    1.000
    C40      C        0.74270    0.01300    0.72890    1.000
    C41      C        0.77320    0.00060    0.78520    1.000
    H29      H        0.76310    0.97320    0.84360    1.000
    C42      C        0.81900    0.02930    0.75380    1.000
    H30      H        0.84090    0.02180    0.79130    1.000
    C43      C        0.83280    0.06860    0.66870    1.000
    H31      H        0.86440    0.08760    0.64710    1.000
    C44      C        0.75900    0.05380    0.64620    1.000
    H32      H        0.73790    0.06260    0.61040    1.000
    Ag5      Ag       0.34575    0.15977    0.83757    1.000
    O5       O        0.33766    0.33936    0.11973    1.000
    N9       N        0.32597    0.19883    0.99263    1.000
    N10      N        0.47057    0.41473    0.94823    1.000
    C45      C        0.29007    0.17613    0.09503    1.000
    H33      H        0.27427    0.14383    0.09493    1.000
    C46      C        0.27607    0.19823    0.19783    1.000
    H34      H        0.25087    0.18133    0.26663    1.000
    C47      C        0.29897    0.24483    0.19923    1.000
    H35      H        0.28927    0.26053    0.26813    1.000
    C48      C        0.33617    0.26923    0.10033    1.000
    C49      C        0.34857    0.24463    0.99903    1.000
    H36      H        0.37417    0.26093    0.93143    1.000
    C50      C        0.35977    0.31983    0.09623    1.000
    C51      C        0.40937    0.34633    0.06223    1.000
    C52      C        0.43987    0.33393    0.11853    1.000
    H37      H        0.42977    0.30653    0.17693    1.000
    C53      C        0.48567    0.36263    0.08713    1.000
    H38      H        0.50757    0.35513    0.12463    1.000
    C54      C        0.49947    0.40193    0.00203    1.000
    H39      H        0.53107    0.42093    0.98043    1.000
    C55      C        0.42567    0.38713    0.97953    1.000
    H40      H        0.40457    0.39593    0.94373    1.000
    Ag6      Ag       0.01241    0.49311    0.17091    1.000
    O6       O        0.00432    0.67270    0.45307    1.000
    N11      N        0.99263    0.53217    0.32597    1.000
    N12      N        0.13723    0.74807    0.28157    1.000
    C56      C        0.95673    0.50947    0.42837    1.000
    H41      H        0.94093    0.47717    0.42827    1.000
    C57      C        0.94273    0.53157    0.53117    1.000
    H42      H        0.91753    0.51467    0.59997    1.000
    C58      C        0.96563    0.57817    0.53257    1.000
    H43      H        0.95593    0.59387    0.60147    1.000
    C59      C        0.00283    0.60257    0.43367    1.000
    C60      C        0.01523    0.57797    0.33237    1.000
    H44      H        0.04083    0.59427    0.26477    1.000
    C61      C        0.02643    0.65317    0.42957    1.000
    C62      C        0.07603    0.67967    0.39557    1.000
    C63      C        0.10653    0.66727    0.45187    1.000
    H45      H        0.09643    0.63987    0.51027    1.000
    C64      C        0.15233    0.69597    0.42047    1.000
    H46      H        0.17423    0.68847    0.45797    1.000
    C65      C        0.16613    0.73527    0.33537    1.000
    H47      H        0.19773    0.75427    0.31377    1.000
    C66      C        0.09233    0.72047    0.31287    1.000
    H48      H        0.07123    0.72927    0.27707    1.000
    Ag7      Ag       0.17356    0.85264    0.50424    1.000
    O7       O        0.99397    0.66496    0.78640    1.000
    N13      N        0.13450    0.79380    0.65930    1.000
    N14      N        0.91860    0.72250    0.61490    1.000
    C67      C        0.15720    0.78060    0.76170    1.000
    H49      H        0.18950    0.79710    0.76160    1.000
    C68      C        0.13510    0.74450    0.86450    1.000
    H50      H        0.15200    0.73620    0.93330    1.000
    C69      C        0.08850    0.72080    0.86590    1.000
    H51      H        0.07280    0.69540    0.93480    1.000
    C70      C        0.06410    0.73360    0.76700    1.000
    C71      C        0.08870    0.77060    0.66570    1.000
    H52      H        0.07240    0.77990    0.59810    1.000
    C72      C        0.01350    0.70660    0.76290    1.000
    C73      C        0.98700    0.72970    0.72890    1.000
    C74      C        0.99940    0.77260    0.78520    1.000
    H53      H        0.02680    0.78990    0.84360    1.000
    C75      C        0.97070    0.78970    0.75380    1.000
    H54      H        0.97820    0.81910    0.79130    1.000
    C76      C        0.93140    0.76420    0.66870    1.000
    H55      H        0.91240    0.77680    0.64710    1.000
    C77      C        0.94620    0.70520    0.64620    1.000
    H56      H        0.93740    0.67530    0.61040    1.000
    Ag8      Ag       0.84023    0.18597    0.83757    1.000
    O8       O        0.66064    0.99829    0.11973    1.000
    N15      N        0.80117    0.12713    0.99263    1.000
    N16      N        0.58527    0.05583    0.94823    1.000
    C78      C        0.82387    0.11393    0.09503    1.000
    H57      H        0.85617    0.13043    0.09493    1.000
    C79      C        0.80177    0.07783    0.19783    1.000
    H58      H        0.81867    0.06953    0.26663    1.000
    C80      C        0.75517    0.05413    0.19923    1.000
    H59      H        0.73947    0.02873    0.26813    1.000
    C81      C        0.73077    0.06693    0.10033    1.000
    C82      C        0.75537    0.10393    0.99903    1.000
    H60      H        0.73907    0.11323    0.93143    1.000
    C83      C        0.68017    0.03993    0.09623    1.000
    C84      C        0.65367    0.06303    0.06223    1.000
    C85      C        0.66607    0.10593    0.11853    1.000
    H61      H        0.69347    0.12323    0.17693    1.000
    C86      C        0.63737    0.12303    0.08713    1.000
    H62      H        0.64487    0.15243    0.12463    1.000
    C87      C        0.59807    0.09753    0.00203    1.000
    H63      H        0.57907    0.11013    0.98043    1.000
    C88      C        0.61287    0.03853    0.97953    1.000
    H64      H        0.60407    0.00863    0.94373    1.000
    Ag9      Ag       0.50689    0.51931    0.17091    1.000
    O9       O        0.32730    0.33163    0.45307    1.000
    N17      N        0.46783    0.46047    0.32597    1.000
    N18      N        0.25193    0.38917    0.28157    1.000
    C89      C        0.49053    0.44727    0.42837    1.000
    H65      H        0.52283    0.46377    0.42827    1.000
    C90      C        0.46843    0.41117    0.53117    1.000
    H66      H        0.48533    0.40287    0.59997    1.000
    C91      C        0.42183    0.38747    0.53257    1.000
    H67      H        0.40613    0.36207    0.60147    1.000
    C92      C        0.39743    0.40027    0.43367    1.000
    C93      C        0.42203    0.43727    0.33237    1.000
    H68      H        0.40573    0.44657    0.26477    1.000
    C94      C        0.34683    0.37327    0.42957    1.000
    C95      C        0.32033    0.39637    0.39557    1.000
    C96      C        0.33273    0.43927    0.45187    1.000
    H69      H        0.36013    0.45657    0.51027    1.000
    C97      C        0.30403    0.45637    0.42047    1.000
    H70      H        0.31153    0.48577    0.45797    1.000
    C98      C        0.26473    0.43087    0.33537    1.000
    H71      H        0.24573    0.44347    0.31377    1.000
    C99      C        0.27953    0.37187    0.31287    1.000
    H72      H        0.27073    0.34197    0.27707    1.000
    Ag10     Ag       0.85264    0.67908    0.49576    1.000
    O10      O        0.66496    0.67099    0.21360    1.000
    N19      N        0.79380    0.65930    0.34070    1.000
    N20      N        0.72250    0.80390    0.38510    1.000
    C100     C        0.78060    0.62340    0.23830    1.000
    H73      H        0.79710    0.60760    0.23840    1.000
    C101     C        0.74450    0.60940    0.13550    1.000
    H74      H        0.73620    0.58420    0.06670    1.000
    C102     C        0.72080    0.63230    0.13410    1.000
    H75      H        0.69540    0.62260    0.06520    1.000
    C103     C        0.73360    0.66950    0.23300    1.000
    C104     C        0.77060    0.68190    0.33430    1.000
    H76      H        0.77990    0.70750    0.40190    1.000
    C105     C        0.70660    0.69310    0.23710    1.000
    C106     C        0.72970    0.74270    0.27110    1.000
    C107     C        0.77260    0.77320    0.21480    1.000
    H77      H        0.78990    0.76310    0.15640    1.000
    C108     C        0.78970    0.81900    0.24620    1.000
    H78      H        0.81910    0.84090    0.20870    1.000
    C109     C        0.76420    0.83280    0.33130    1.000
    H79      H        0.77680    0.86440    0.35290    1.000
    C110     C        0.70520    0.75900    0.35380    1.000
    H80      H        0.67530    0.73790    0.38960    1.000
    Ag11     Ag       0.51931    0.01241    0.82909    1.000
    O11      O        0.33163    0.00432    0.54693    1.000
    N21      N        0.46047    0.99263    0.67403    1.000
    N22      N        0.38917    0.13723    0.71843    1.000
    C111     C        0.44727    0.95673    0.57163    1.000
    H81      H        0.46377    0.94093    0.57173    1.000
    C112     C        0.41117    0.94273    0.46883    1.000
    H82      H        0.40287    0.91753    0.40003    1.000
    C113     C        0.38747    0.96563    0.46743    1.000
    H83      H        0.36207    0.95593    0.39853    1.000
    C114     C        0.40027    0.00283    0.56633    1.000
    C115     C        0.43727    0.01523    0.66763    1.000
    H84      H        0.44657    0.04083    0.73523    1.000
    C116     C        0.37327    0.02643    0.57043    1.000
    C117     C        0.39637    0.07603    0.60443    1.000
    C118     C        0.43927    0.10653    0.54813    1.000
    H85      H        0.45657    0.09643    0.48973    1.000
    C119     C        0.45637    0.15233    0.57953    1.000
    H86      H        0.48577    0.17423    0.54203    1.000
    C120     C        0.43087    0.16613    0.66463    1.000
    H87      H        0.44347    0.19773    0.68623    1.000
    C121     C        0.37187    0.09233    0.68713    1.000
    H88      H        0.34197    0.07123    0.72293    1.000
    Ag12     Ag       0.18597    0.34575    0.16243    1.000
    O12      O        0.99829    0.33766    0.88027    1.000
    N23      N        0.12713    0.32597    0.00737    1.000
    N24      N        0.05583    0.47057    0.05177    1.000
    C122     C        0.11393    0.29007    0.90497    1.000
    H89      H        0.13043    0.27427    0.90507    1.000
    C123     C        0.07783    0.27607    0.80217    1.000
    H90      H        0.06953    0.25087    0.73337    1.000
    C124     C        0.05413    0.29897    0.80077    1.000
    H91      H        0.02873    0.28927    0.73187    1.000
    C125     C        0.06693    0.33617    0.89967    1.000
    C126     C        0.10393    0.34857    0.00097    1.000
    H92      H        0.11323    0.37417    0.06857    1.000
    C127     C        0.03993    0.35977    0.90377    1.000
    C128     C        0.06303    0.40937    0.93777    1.000
    C129     C        0.10593    0.43987    0.88147    1.000
    H93      H        0.12323    0.42977    0.82307    1.000
    C130     C        0.12303    0.48567    0.91287    1.000
    H94      H        0.15243    0.50757    0.87537    1.000
    C131     C        0.09753    0.49947    0.99797    1.000
    H95      H        0.11013    0.53107    0.01957    1.000
    C132     C        0.03853    0.42567    0.02047    1.000
    H96      H        0.00863    0.40457    0.05627    1.000
    Ag13     Ag       0.32092    0.17356    0.49576    1.000
    O13      O        0.32901    0.99397    0.21360    1.000
    N25      N        0.34070    0.13450    0.34070    1.000
    N26      N        0.19610    0.91860    0.38510    1.000
    C133     C        0.37660    0.15720    0.23830    1.000
    H97      H        0.39240    0.18950    0.23840    1.000
    C134     C        0.39060    0.13510    0.13550    1.000
    H98      H        0.41580    0.15200    0.06670    1.000
    C135     C        0.36770    0.08850    0.13410    1.000
    H99      H        0.37740    0.07280    0.06520    1.000
    C136     C        0.33050    0.06410    0.23300    1.000
    C137     C        0.31810    0.08870    0.33430    1.000
    H100     H        0.29250    0.07240    0.40190    1.000
    C138     C        0.30690    0.01350    0.23710    1.000
    C139     C        0.25730    0.98700    0.27110    1.000
    C140     C        0.22680    0.99940    0.21480    1.000
    H101     H        0.23690    0.02680    0.15640    1.000
    C141     C        0.18100    0.97070    0.24620    1.000
    H102     H        0.15910    0.97820    0.20870    1.000
    C142     C        0.16720    0.93140    0.33130    1.000
    H103     H        0.13560    0.91240    0.35290    1.000
    C143     C        0.24100    0.94620    0.35380    1.000
    H104     H        0.26210    0.93740    0.38960    1.000
    Ag14     Ag       0.98759    0.50689    0.82909    1.000
    O14      O        0.99568    0.32730    0.54693    1.000
    N27      N        0.00737    0.46783    0.67403    1.000
    N28      N        0.86277    0.25193    0.71843    1.000
    C144     C        0.04327    0.49053    0.57163    1.000
    H105     H        0.05907    0.52283    0.57173    1.000
    C145     C        0.05727    0.46843    0.46883    1.000
    H106     H        0.08247    0.48533    0.40003    1.000
    C146     C        0.03437    0.42183    0.46743    1.000
    H107     H        0.04407    0.40613    0.39853    1.000
    C147     C        0.99717    0.39743    0.56633    1.000
    C148     C        0.98477    0.42203    0.66763    1.000
    H108     H        0.95917    0.40573    0.73523    1.000
    C149     C        0.97357    0.34683    0.57043    1.000
    C150     C        0.92397    0.32033    0.60443    1.000
    C151     C        0.89347    0.33273    0.54813    1.000
    H109     H        0.90357    0.36013    0.48973    1.000
    C152     C        0.84767    0.30403    0.57953    1.000
    H110     H        0.82577    0.31153    0.54203    1.000
    C153     C        0.83387    0.26473    0.66463    1.000
    H111     H        0.80227    0.24573    0.68623    1.000
    C154     C        0.90767    0.27953    0.68713    1.000
    H112     H        0.92877    0.27073    0.72293    1.000
    Ag15     Ag       0.65425    0.84023    0.16243    1.000
    O15      O        0.66234    0.66064    0.88027    1.000
    N29      N        0.67403    0.80117    0.00737    1.000
    N30      N        0.52943    0.58527    0.05177    1.000
    C155     C        0.70993    0.82387    0.90497    1.000
    H113     H        0.72573    0.85617    0.90507    1.000
    C156     C        0.72393    0.80177    0.80217    1.000
    H114     H        0.74913    0.81867    0.73337    1.000
    C157     C        0.70103    0.75517    0.80077    1.000
    H115     H        0.71073    0.73947    0.73187    1.000
    C158     C        0.66383    0.73077    0.89967    1.000
    C159     C        0.65143    0.75537    0.00097    1.000
    H116     H        0.62583    0.73907    0.06857    1.000
    C160     C        0.64023    0.68017    0.90377    1.000
    C161     C        0.59063    0.65367    0.93777    1.000
    C162     C        0.56013    0.66607    0.88147    1.000
    H117     H        0.57023    0.69347    0.82307    1.000
    C163     C        0.51433    0.63737    0.91287    1.000
    H118     H        0.49243    0.64487    0.87537    1.000
    C164     C        0.50053    0.59807    0.99797    1.000
    H119     H        0.46893    0.57907    0.01957    1.000
    C165     C        0.57433    0.61287    0.02047    1.000
    H120     H        0.59543    0.60407    0.05627    1.000
    Ag16     Ag       0.82644    0.14736    0.49576    1.000
    O16      O        0.00603    0.33504    0.21360    1.000
    N31      N        0.86550    0.20620    0.34070    1.000
    N32      N        0.08140    0.27750    0.38510    1.000
    C166     C        0.84280    0.21940    0.23830    1.000
    H121     H        0.81050    0.20290    0.23840    1.000
    C167     C        0.86490    0.25550    0.13550    1.000
    H122     H        0.84800    0.26380    0.06670    1.000
    C168     C        0.91150    0.27920    0.13410    1.000
    H123     H        0.92720    0.30460    0.06520    1.000
    C169     C        0.93590    0.26640    0.23300    1.000
    C170     C        0.91130    0.22940    0.33430    1.000
    H124     H        0.92760    0.22010    0.40190    1.000
    C171     C        0.98650    0.29340    0.23710    1.000
    C172     C        0.01300    0.27030    0.27110    1.000
    C173     C        0.00060    0.22740    0.21480    1.000
    H125     H        0.97320    0.21010    0.15640    1.000
    C174     C        0.02930    0.21030    0.24620    1.000
    H126     H        0.02180    0.18090    0.20870    1.000
    C175     C        0.06860    0.23580    0.33130    1.000
    H127     H        0.08760    0.22320    0.35290    1.000
    C176     C        0.05380    0.29480    0.35380    1.000
    H128     H        0.06260    0.32470    0.38960    1.000
    Ag17     Ag       0.49311    0.48069    0.82909    1.000
    O17      O        0.67270    0.66837    0.54693    1.000
    N33      N        0.53217    0.53953    0.67403    1.000
    N34      N        0.74807    0.61083    0.71843    1.000
    C177     C        0.50947    0.55273    0.57163    1.000
    H129     H        0.47717    0.53623    0.57173    1.000
    C178     C        0.53157    0.58883    0.46883    1.000
    H130     H        0.51467    0.59713    0.40003    1.000
    C179     C        0.57817    0.61253    0.46743    1.000
    H131     H        0.59387    0.63793    0.39853    1.000
    C180     C        0.60257    0.59973    0.56633    1.000
    C181     C        0.57797    0.56273    0.66763    1.000
    H132     H        0.59427    0.55343    0.73523    1.000
    C182     C        0.65317    0.62673    0.57043    1.000
    C183     C        0.67967    0.60363    0.60443    1.000
    C184     C        0.66727    0.56073    0.54813    1.000
    H133     H        0.63987    0.54343    0.48973    1.000
    C185     C        0.69597    0.54363    0.57953    1.000
    H134     H        0.68847    0.51423    0.54203    1.000
    C186     C        0.73527    0.56913    0.66463    1.000
    H135     H        0.75427    0.55653    0.68623    1.000
    C187     C        0.72047    0.62813    0.68713    1.000
    H136     H        0.72927    0.65803    0.72293    1.000
    Ag18     Ag       0.15977    0.81403    0.16243    1.000
    O18      O        0.33936    0.00171    0.88027    1.000
    N35      N        0.19883    0.87287    0.00737    1.000
    N36      N        0.41473    0.94417    0.05177    1.000
    C188     C        0.17613    0.88607    0.90497    1.000
    H137     H        0.14383    0.86957    0.90507    1.000
    C189     C        0.19823    0.92217    0.80217    1.000
    H138     H        0.18133    0.93047    0.73337    1.000
    C190     C        0.24483    0.94587    0.80077    1.000
    H139     H        0.26053    0.97127    0.73187    1.000
    C191     C        0.26923    0.93307    0.89967    1.000
    C192     C        0.24463    0.89607    0.00097    1.000
    H140     H        0.26093    0.88677    0.06857    1.000
    C193     C        0.31983    0.96007    0.90377    1.000
    C194     C        0.34633    0.93697    0.93777    1.000
    C195     C        0.33393    0.89407    0.88147    1.000
    H141     H        0.30653    0.87677    0.82307    1.000
    C196     C        0.36263    0.87697    0.91287    1.000
    H142     H        0.35513    0.84757    0.87537    1.000
    C197     C        0.40193    0.90247    0.99797    1.000
    H143     H        0.42093    0.88987    0.01957    1.000
    C198     C        0.38713    0.96147    0.02047    1.000
    H144     H        0.39593    0.99137    0.05627    1.000
