# CIF file generated by openbabel 3.1.0, see https://openbabel.org
data_I
_chemical_name_common 'image0'
_cell_length_a 15.802
_cell_length_b 23.455
_cell_length_c 18.506
_cell_angle_alpha 90
_cell_angle_beta 105.896
_cell_angle_gamma 90
_space_group_name_H-M_alt 'P 1'
_space_group_name_Hall 'P 1'
loop_
    _symmetry_equiv_pos_as_xyz
    x,y,z
loop_
    _atom_site_label
    _atom_site_type_symbol
    _atom_site_fract_x
    _atom_site_fract_y
    _atom_site_fract_z
    _atom_site_occupancy
    Mn1      Mn       0.60168    0.56996    0.84232    1.000
    Mn2      Mn       0.10070    0.70960    0.90401    1.000
    N1       N        0.56030    0.64170    0.75850    1.000
    N2       N        0.48180    0.71480    0.70240    1.000
    N3       N        0.15830    0.77200    0.83790    1.000
    N4       N        0.23240    0.80110    0.75910    1.000
    N5       N        0.20980    0.87740    0.41450    1.000
    N6       N        0.28570    0.83220    0.51510    1.000
    N7       N        0.48910    0.51220    0.78850    1.000
    N8       N        0.35330    0.48090    0.74290    1.000
    N9       N        0.06110    0.64780    0.80700    1.000
    N10      N        0.07920    0.57180    0.74230    1.000
    N11      N        0.05880    0.36100    0.46890    1.000
    N12      N        0.08700    0.43030    0.55230    1.000
    C1       C        0.38670    0.77660    0.61090    1.000
    H1       H        0.41920    0.76880    0.57710    1.000
    C2       C        0.41070    0.75350    0.68260    1.000
    C3       C        0.36320    0.76480    0.73300    1.000
    H2       H        0.38180    0.75090    0.78190    1.000
    C4       C        0.28810    0.79700    0.71020    1.000
    C5       C        0.26150    0.82140    0.63900    1.000
    H3       H        0.21080    0.84340    0.62430    1.000
    C6       C        0.31320    0.81170    0.59070    1.000
    C7       C        0.54240    0.70150    0.66350    1.000
    H4       H        0.54910    0.71970    0.62070    1.000
    C8       C        0.58940    0.65780    0.69910    1.000
    H5       H        0.63570    0.64060    0.68520    1.000
    C9       C        0.49740    0.67690    0.75990    1.000
    H6       H        0.46660    0.67620    0.79610    1.000
    C10      C        0.31010    0.81130    0.45450    1.000
    H7       H        0.35100    0.78260    0.45540    1.000
    C11      C        0.26490    0.83930    0.39470    1.000
    H8       H        0.26980    0.83400    0.34620    1.000
    C12      C        0.22010    0.86860    0.48480    1.000
    H9       H        0.18560    0.88570    0.51200    1.000
    C13      C        0.21930    0.76010    0.80490    1.000
    H10      H        0.25080    0.72610    0.81260    1.000
    C14      C        0.17460    0.84360    0.76320    1.000
    H11      H        0.16690    0.87830    0.73790    1.000
    C15      C        0.13110    0.82450    0.81170    1.000
    H12      H        0.08750    0.84500    0.82550    1.000
    C16      C        0.21990    0.45290    0.64980    1.000
    H13      H        0.25170    0.42770    0.62860    1.000
    C17      C        0.26010    0.48410    0.71410    1.000
    C18      C        0.21380    0.52070    0.74640    1.000
    H14      H        0.24140    0.53930    0.79100    1.000
    C19      C        0.12560    0.52960    0.71220    1.000
    C20      C        0.08200    0.49960    0.64840    1.000
    H15      H        0.02220    0.50520    0.62630    1.000
    C21      C        0.12950    0.46130    0.61840    1.000
    C22      C        0.40660    0.52420    0.77710    1.000
    H16      H        0.38610    0.55860    0.79090    1.000
    C23      C        0.49080    0.45790    0.76090    1.000
    H17      H        0.54150    0.43740    0.76200    1.000
    C24      C        0.40900    0.43890    0.73240    1.000
    H18      H        0.39270    0.40380    0.70960    1.000
    C25      C        0.11650    0.61010    0.79530    1.000
    H19      H        0.17600    0.60980    0.82110    1.000
    C26      C        0.98300    0.63340    0.75880    1.000
    H20      H        0.93050    0.65290    0.75400    1.000
    C27      C        0.99150    0.58660    0.71830    1.000
    H21      H        0.94750    0.56830    0.68190    1.000
    C28      C        0.11210    0.37850    0.53360    1.000
    H22      H        0.16000    0.35800    0.56210    1.000
    C29      C        0.99830    0.40420    0.44630    1.000
    H23      H        0.95310    0.40430    0.40180    1.000
    C30      C        0.01420    0.44670    0.49840    1.000
    H24      H        0.98190    0.48000    0.49730    1.000
    Mn3      Mn       0.10168    0.06996    0.84232    1.000
    Mn4      Mn       0.60070    0.20960    0.90401    1.000
    N13      N        0.06030    0.14170    0.75850    1.000
    N14      N        0.98180    0.21480    0.70240    1.000
    N15      N        0.65830    0.27200    0.83790    1.000
    N16      N        0.73240    0.30110    0.75910    1.000
    N17      N        0.70980    0.37740    0.41450    1.000
    N18      N        0.78570    0.33220    0.51510    1.000
    N19      N        0.98910    0.01220    0.78850    1.000
    N20      N        0.85330    0.98090    0.74290    1.000
    N21      N        0.56110    0.14780    0.80700    1.000
    N22      N        0.57920    0.07180    0.74230    1.000
    N23      N        0.55880    0.86100    0.46890    1.000
    N24      N        0.58700    0.93030    0.55230    1.000
    C31      C        0.88670    0.27660    0.61090    1.000
    H25      H        0.91920    0.26880    0.57710    1.000
    C32      C        0.91070    0.25350    0.68260    1.000
    C33      C        0.86320    0.26480    0.73300    1.000
    H26      H        0.88180    0.25090    0.78190    1.000
    C34      C        0.78810    0.29700    0.71020    1.000
    C35      C        0.76150    0.32140    0.63900    1.000
    H27      H        0.71080    0.34340    0.62430    1.000
    C36      C        0.81320    0.31170    0.59070    1.000
    C37      C        0.04240    0.20150    0.66350    1.000
    H28      H        0.04910    0.21970    0.62070    1.000
    C38      C        0.08940    0.15780    0.69910    1.000
    H29      H        0.13570    0.14060    0.68520    1.000
    C39      C        0.99740    0.17690    0.75990    1.000
    H30      H        0.96660    0.17620    0.79610    1.000
    C40      C        0.81010    0.31130    0.45450    1.000
    H31      H        0.85100    0.28260    0.45540    1.000
    C41      C        0.76490    0.33930    0.39470    1.000
    H32      H        0.76980    0.33400    0.34620    1.000
    C42      C        0.72010    0.36860    0.48480    1.000
    H33      H        0.68560    0.38570    0.51200    1.000
    C43      C        0.71930    0.26010    0.80490    1.000
    H34      H        0.75080    0.22610    0.81260    1.000
    C44      C        0.67460    0.34360    0.76320    1.000
    H35      H        0.66690    0.37830    0.73790    1.000
    C45      C        0.63110    0.32450    0.81170    1.000
    H36      H        0.58750    0.34500    0.82550    1.000
    C46      C        0.71990    0.95290    0.64980    1.000
    H37      H        0.75170    0.92770    0.62860    1.000
    C47      C        0.76010    0.98410    0.71410    1.000
    C48      C        0.71380    0.02070    0.74640    1.000
    H38      H        0.74140    0.03930    0.79100    1.000
    C49      C        0.62560    0.02960    0.71220    1.000
    C50      C        0.58200    0.99960    0.64840    1.000
    H39      H        0.52220    0.00520    0.62630    1.000
    C51      C        0.62950    0.96130    0.61840    1.000
    C52      C        0.90660    0.02420    0.77710    1.000
    H40      H        0.88610    0.05860    0.79090    1.000
    C53      C        0.99080    0.95790    0.76090    1.000
    H41      H        0.04150    0.93740    0.76200    1.000
    C54      C        0.90900    0.93890    0.73240    1.000
    H42      H        0.89270    0.90380    0.70960    1.000
    C55      C        0.61650    0.11010    0.79530    1.000
    H43      H        0.67600    0.10980    0.82110    1.000
    C56      C        0.48300    0.13340    0.75880    1.000
    H44      H        0.43050    0.15290    0.75400    1.000
    C57      C        0.49150    0.08660    0.71830    1.000
    H45      H        0.44750    0.06830    0.68190    1.000
    C58      C        0.61210    0.87850    0.53360    1.000
    H46      H        0.66000    0.85800    0.56210    1.000
    C59      C        0.49830    0.90420    0.44630    1.000
    H47      H        0.45310    0.90430    0.40180    1.000
    C60      C        0.51420    0.94670    0.49840    1.000
    H48      H        0.48190    0.98000    0.49730    1.000
    Mn5      Mn       0.60168    0.43004    0.34232    1.000
    Mn6      Mn       0.10070    0.29040    0.40401    1.000
    N25      N        0.56030    0.35830    0.25850    1.000
    N26      N        0.48180    0.28520    0.20240    1.000
    N27      N        0.15830    0.22800    0.33790    1.000
    N28      N        0.23240    0.19890    0.25910    1.000
    N29      N        0.20980    0.12260    0.91450    1.000
    N30      N        0.28570    0.16780    0.01510    1.000
    N31      N        0.48910    0.48780    0.28850    1.000
    N32      N        0.35330    0.51910    0.24290    1.000
    N33      N        0.06110    0.35220    0.30700    1.000
    N34      N        0.07920    0.42820    0.24230    1.000
    N35      N        0.05880    0.63900    0.96890    1.000
    N36      N        0.08700    0.56970    0.05230    1.000
    C61      C        0.38670    0.22340    0.11090    1.000
    H49      H        0.41920    0.23120    0.07710    1.000
    C62      C        0.41070    0.24650    0.18260    1.000
    C63      C        0.36320    0.23520    0.23300    1.000
    H50      H        0.38180    0.24910    0.28190    1.000
    C64      C        0.28810    0.20300    0.21020    1.000
    C65      C        0.26150    0.17860    0.13900    1.000
    H51      H        0.21080    0.15660    0.12430    1.000
    C66      C        0.31320    0.18830    0.09070    1.000
    C67      C        0.54240    0.29850    0.16350    1.000
    H52      H        0.54910    0.28030    0.12070    1.000
    C68      C        0.58940    0.34220    0.19910    1.000
    H53      H        0.63570    0.35940    0.18520    1.000
    C69      C        0.49740    0.32310    0.25990    1.000
    H54      H        0.46660    0.32380    0.29610    1.000
    C70      C        0.31010    0.18870    0.95450    1.000
    H55      H        0.35100    0.21740    0.95540    1.000
    C71      C        0.26490    0.16070    0.89470    1.000
    H56      H        0.26980    0.16600    0.84620    1.000
    C72      C        0.22010    0.13140    0.98480    1.000
    H57      H        0.18560    0.11430    0.01200    1.000
    C73      C        0.21930    0.23990    0.30490    1.000
    H58      H        0.25080    0.27390    0.31260    1.000
    C74      C        0.17460    0.15640    0.26320    1.000
    H59      H        0.16690    0.12170    0.23790    1.000
    C75      C        0.13110    0.17550    0.31170    1.000
    H60      H        0.08750    0.15500    0.32550    1.000
    C76      C        0.21990    0.54710    0.14980    1.000
    H61      H        0.25170    0.57230    0.12860    1.000
    C77      C        0.26010    0.51590    0.21410    1.000
    C78      C        0.21380    0.47930    0.24640    1.000
    H62      H        0.24140    0.46070    0.29100    1.000
    C79      C        0.12560    0.47040    0.21220    1.000
    C80      C        0.08200    0.50040    0.14840    1.000
    H63      H        0.02220    0.49480    0.12630    1.000
    C81      C        0.12950    0.53870    0.11840    1.000
    C82      C        0.40660    0.47580    0.27710    1.000
    H64      H        0.38610    0.44140    0.29090    1.000
    C83      C        0.49080    0.54210    0.26090    1.000
    H65      H        0.54150    0.56260    0.26200    1.000
    C84      C        0.40900    0.56110    0.23240    1.000
    H66      H        0.39270    0.59620    0.20960    1.000
    C85      C        0.11650    0.38990    0.29530    1.000
    H67      H        0.17600    0.39020    0.32110    1.000
    C86      C        0.98300    0.36660    0.25880    1.000
    H68      H        0.93050    0.34710    0.25400    1.000
    C87      C        0.99150    0.41340    0.21830    1.000
    H69      H        0.94750    0.43170    0.18190    1.000
    C88      C        0.11210    0.62150    0.03360    1.000
    H70      H        0.16000    0.64200    0.06210    1.000
    C89      C        0.99830    0.59580    0.94630    1.000
    H71      H        0.95310    0.59570    0.90180    1.000
    C90      C        0.01420    0.55330    0.99840    1.000
    H72      H        0.98190    0.52000    0.99730    1.000
    Mn7      Mn       0.10168    0.93004    0.34232    1.000
    Mn8      Mn       0.60070    0.79040    0.40401    1.000
    N37      N        0.06030    0.85830    0.25850    1.000
    N38      N        0.98180    0.78520    0.20240    1.000
    N39      N        0.65830    0.72800    0.33790    1.000
    N40      N        0.73240    0.69890    0.25910    1.000
    N41      N        0.70980    0.62260    0.91450    1.000
    N42      N        0.78570    0.66780    0.01510    1.000
    N43      N        0.98910    0.98780    0.28850    1.000
    N44      N        0.85330    0.01910    0.24290    1.000
    N45      N        0.56110    0.85220    0.30700    1.000
    N46      N        0.57920    0.92820    0.24230    1.000
    N47      N        0.55880    0.13900    0.96890    1.000
    N48      N        0.58700    0.06970    0.05230    1.000
    C91      C        0.88670    0.72340    0.11090    1.000
    H73      H        0.91920    0.73120    0.07710    1.000
    C92      C        0.91070    0.74650    0.18260    1.000
    C93      C        0.86320    0.73520    0.23300    1.000
    H74      H        0.88180    0.74910    0.28190    1.000
    C94      C        0.78810    0.70300    0.21020    1.000
    C95      C        0.76150    0.67860    0.13900    1.000
    H75      H        0.71080    0.65660    0.12430    1.000
    C96      C        0.81320    0.68830    0.09070    1.000
    C97      C        0.04240    0.79850    0.16350    1.000
    H76      H        0.04910    0.78030    0.12070    1.000
    C98      C        0.08940    0.84220    0.19910    1.000
    H77      H        0.13570    0.85940    0.18520    1.000
    C99      C        0.99740    0.82310    0.25990    1.000
    H78      H        0.96660    0.82380    0.29610    1.000
    C100     C        0.81010    0.68870    0.95450    1.000
    H79      H        0.85100    0.71740    0.95540    1.000
    C101     C        0.76490    0.66070    0.89470    1.000
    H80      H        0.76980    0.66600    0.84620    1.000
    C102     C        0.72010    0.63140    0.98480    1.000
    H81      H        0.68560    0.61430    0.01200    1.000
    C103     C        0.71930    0.73990    0.30490    1.000
    H82      H        0.75080    0.77390    0.31260    1.000
    C104     C        0.67460    0.65640    0.26320    1.000
    H83      H        0.66690    0.62170    0.23790    1.000
    C105     C        0.63110    0.67550    0.31170    1.000
    H84      H        0.58750    0.65500    0.32550    1.000
    C106     C        0.71990    0.04710    0.14980    1.000
    H85      H        0.75170    0.07230    0.12860    1.000
    C107     C        0.76010    0.01590    0.21410    1.000
    C108     C        0.71380    0.97930    0.24640    1.000
    H86      H        0.74140    0.96070    0.29100    1.000
    C109     C        0.62560    0.97040    0.21220    1.000
    C110     C        0.58200    0.00040    0.14840    1.000
    H87      H        0.52220    0.99480    0.12630    1.000
    C111     C        0.62950    0.03870    0.11840    1.000
    C112     C        0.90660    0.97580    0.27710    1.000
    H88      H        0.88610    0.94140    0.29090    1.000
    C113     C        0.99080    0.04210    0.26090    1.000
    H89      H        0.04150    0.06260    0.26200    1.000
    C114     C        0.90900    0.06110    0.23240    1.000
    H90      H        0.89270    0.09620    0.20960    1.000
    C115     C        0.61650    0.88990    0.29530    1.000
    H91      H        0.67600    0.89020    0.32110    1.000
    C116     C        0.48300    0.86660    0.25880    1.000
    H92      H        0.43050    0.84710    0.25400    1.000
    C117     C        0.49150    0.91340    0.21830    1.000
    H93      H        0.44750    0.93170    0.18190    1.000
    C118     C        0.61210    0.12150    0.03360    1.000
    H94      H        0.66000    0.14200    0.06210    1.000
    C119     C        0.49830    0.09580    0.94630    1.000
    H95      H        0.45310    0.09570    0.90180    1.000
    C120     C        0.51420    0.05330    0.99840    1.000
    H96      H        0.48190    0.02000    0.99730    1.000
