# CIF file generated by openbabel 3.1.0, see https://openbabel.org
data_I
_chemical_name_common 'image0'
_cell_length_a 10.2
_cell_length_b 9.998
_cell_length_c 10.4471
_cell_angle_alpha 90
_cell_angle_beta 92.242
_cell_angle_gamma 90
_space_group_name_H-M_alt 'P 1'
_space_group_name_Hall 'P 1'
loop_
    _symmetry_equiv_pos_as_xyz
    x,y,z
loop_
    _atom_site_label
    _atom_site_type_symbol
    _atom_site_fract_x
    _atom_site_fract_y
    _atom_site_fract_z
    _atom_site_occupancy
    Zn1      Zn       0.13720    0.42350    0.89270    1.000
    Zn2      Zn       0.37240    0.09890    0.12110    1.000
    Zn3      Zn       0.08300    0.15010    0.39880    1.000
    Zn4      Zn       0.57920    0.81430    0.37500    1.000
    P1       P        0.92820    0.67130    0.90580    1.000
    P2       P        0.38410    0.06370    0.43130    1.000
    P3       P        0.11440    0.39680    0.58780    1.000
    P4       P        0.43270    0.35460    0.92930    1.000
    O1       O        0.31940    0.45680    0.93090    1.000
    O2       O        0.05910    0.59730    0.91700    1.000
    O3       O        0.10090    0.34480    0.72420    1.000
    O4       O        0.06180    0.28670    0.99890    1.000
    O5       O        0.42970    0.26200    0.04590    1.000
    O6       O        0.40840    0.13020    0.30220    1.000
    O7       O        0.56310    0.42940    0.93840    1.000
    O8       O        0.81550    0.57420    0.93760    1.000
    O9       O        0.23670    0.05530    0.45660    1.000
    O10      O        0.07060    0.53970    0.57660    1.000
    O11      O        0.03270    0.30890    0.49670    1.000
    O12      O        0.90400    0.72970    0.77190    1.000
    O13      O        0.43450    0.92000    0.43450    1.000
    O14      O        0.42360    0.26940    0.80570    1.000
    O15      O        0.26100    0.39530    0.55270    1.000
    O16      O        0.45480    0.14370    0.53720    1.000
    Zn5      Zn       0.86280    0.92350    0.10730    1.000
    Zn6      Zn       0.62760    0.59890    0.87890    1.000
    Zn7      Zn       0.91700    0.65010    0.60120    1.000
    Zn8      Zn       0.42080    0.31430    0.62500    1.000
    P5       P        0.07180    0.17130    0.09420    1.000
    P6       P        0.61590    0.56370    0.56870    1.000
    P7       P        0.88560    0.89680    0.41220    1.000
    P8       P        0.56730    0.85460    0.07070    1.000
    O17      O        0.68060    0.95680    0.06910    1.000
    O18      O        0.94090    0.09730    0.08300    1.000
    O19      O        0.89910    0.84480    0.27580    1.000
    O20      O        0.93820    0.78670    0.00110    1.000
    O21      O        0.57030    0.76200    0.95410    1.000
    O22      O        0.59160    0.63020    0.69780    1.000
    O23      O        0.43690    0.92940    0.06160    1.000
    O24      O        0.18450    0.07420    0.06240    1.000
    O25      O        0.76330    0.55530    0.54340    1.000
    O26      O        0.92940    0.03970    0.42340    1.000
    O27      O        0.96730    0.80890    0.50330    1.000
    O28      O        0.09600    0.22970    0.22810    1.000
    O29      O        0.56550    0.42000    0.56550    1.000
    O30      O        0.57640    0.76940    0.19430    1.000
    O31      O        0.73900    0.89530    0.44730    1.000
    O32      O        0.54520    0.64370    0.46280    1.000
