# CIF file generated by openbabel 3.1.0, see https://openbabel.org
data_I
_chemical_name_common 'image0'
_cell_length_a 18.5877
_cell_length_b 18.5877
_cell_length_c 6.874
_cell_angle_alpha 90
_cell_angle_beta 90
_cell_angle_gamma 120
_space_group_name_H-M_alt 'P 1'
_space_group_name_Hall 'P 1'
loop_
    _symmetry_equiv_pos_as_xyz
    x,y,z
loop_
    _atom_site_label
    _atom_site_type_symbol
    _atom_site_fract_x
    _atom_site_fract_y
    _atom_site_fract_z
    _atom_site_occupancy
    O1       O        0.58860    0.55850    0.75140    1.000
    O2       O        0.62860    0.51860    0.01770    1.000
    O3       O        0.79620    0.71230    0.24330    1.000
    C1       C        0.64110    0.55020    0.84980    1.000
    C2       C        0.72340    0.57670    0.75810    1.000
    C3       C        0.74570    0.61990    0.58420    1.000
    C4       C        0.81220    0.75900    0.07600    1.000
    H1       H        0.70790    0.63340    0.52320    1.000
    H2       H        0.46030    0.59620    0.58250    1.000
    H3       H        0.76670    0.76780    0.04400    1.000
    H4       H        0.86100    0.81280    0.09020    1.000
    H5       H        0.82100    0.73220    0.96650    1.000
    O4       O        0.44150    0.03010    0.75140    1.000
    O5       O        0.48140    0.11000    0.01770    1.000
    O6       O        0.28770    0.08390    0.24330    1.000
    C5       C        0.44980    0.09090    0.84980    1.000
    C6       C        0.42330    0.14670    0.75810    1.000
    C7       C        0.38010    0.12580    0.58420    1.000
    C8       C        0.24100    0.05320    0.07600    1.000
    H6       H        0.36660    0.07450    0.52320    1.000
    H7       H        0.40380    0.86410    0.58250    1.000
    H8       H        0.23220    0.99890    0.04400    1.000
    H9       H        0.18720    0.04820    0.09020    1.000
    H10      H        0.26780    0.08880    0.96650    1.000
    O7       O        0.96990    0.41140    0.75140    1.000
    O8       O        0.89000    0.37140    0.01770    1.000
    O9       O        0.91610    0.20380    0.24330    1.000
    C9       C        0.90910    0.35890    0.84980    1.000
    C10      C        0.85330    0.27660    0.75810    1.000
    C11      C        0.87420    0.25430    0.58420    1.000
    C12      C        0.94680    0.18780    0.07600    1.000
    H11      H        0.92550    0.29210    0.52320    1.000
    H12      H        0.13590    0.53970    0.58250    1.000
    H13      H        0.00110    0.23330    0.04400    1.000
    H14      H        0.95180    0.13900    0.09020    1.000
    H15      H        0.91120    0.17900    0.96650    1.000
    O10      O        0.55850    0.58860    0.24860    1.000
    O11      O        0.51860    0.62860    0.98230    1.000
    O12      O        0.71230    0.79620    0.75670    1.000
    C13      C        0.55020    0.64110    0.15020    1.000
    C14      C        0.57670    0.72340    0.24190    1.000
    C15      C        0.61990    0.74570    0.41580    1.000
    C16      C        0.75900    0.81220    0.92400    1.000
    H16      H        0.63340    0.70790    0.47680    1.000
    H17      H        0.59620    0.46030    0.41750    1.000
    H18      H        0.76780    0.76670    0.95600    1.000
    H19      H        0.81280    0.86100    0.90980    1.000
    H20      H        0.73220    0.82100    0.03350    1.000
    O13      O        0.03010    0.44150    0.24860    1.000
    O14      O        0.11000    0.48140    0.98230    1.000
    O15      O        0.08390    0.28770    0.75670    1.000
    C17      C        0.09090    0.44980    0.15020    1.000
    C18      C        0.14670    0.42330    0.24190    1.000
    C19      C        0.12580    0.38010    0.41580    1.000
    C20      C        0.05320    0.24100    0.92400    1.000
    H21      H        0.07450    0.36660    0.47680    1.000
    H22      H        0.86410    0.40380    0.41750    1.000
    H23      H        0.99890    0.23220    0.95600    1.000
    H24      H        0.04820    0.18720    0.90980    1.000
    H25      H        0.08880    0.26780    0.03350    1.000
    O16      O        0.41140    0.96990    0.24860    1.000
    O17      O        0.37140    0.89000    0.98230    1.000
    O18      O        0.20380    0.91610    0.75670    1.000
    C21      C        0.35890    0.90910    0.15020    1.000
    C22      C        0.27660    0.85330    0.24190    1.000
    C23      C        0.25430    0.87420    0.41580    1.000
    C24      C        0.18780    0.94680    0.92400    1.000
    H26      H        0.29210    0.92550    0.47680    1.000
    H27      H        0.53970    0.13590    0.41750    1.000
    H28      H        0.23330    0.00110    0.95600    1.000
    H29      H        0.13900    0.95180    0.90980    1.000
    H30      H        0.17900    0.91120    0.03350    1.000
    O19      O        0.41140    0.44150    0.24860    1.000
    O20      O        0.37140    0.48140    0.98230    1.000
    O21      O        0.20380    0.28770    0.75670    1.000
    C25      C        0.35890    0.44980    0.15020    1.000
    C26      C        0.27660    0.42330    0.24190    1.000
    C27      C        0.25430    0.38010    0.41580    1.000
    C28      C        0.18780    0.24100    0.92400    1.000
    H31      H        0.29210    0.36660    0.47680    1.000
    H32      H        0.53970    0.40380    0.41750    1.000
    H33      H        0.23330    0.23220    0.95600    1.000
    H34      H        0.13900    0.18720    0.90980    1.000
    H35      H        0.17900    0.26780    0.03350    1.000
    O22      O        0.55850    0.96990    0.24860    1.000
    O23      O        0.51860    0.89000    0.98230    1.000
    O24      O        0.71230    0.91610    0.75670    1.000
    C29      C        0.55020    0.90910    0.15020    1.000
    C30      C        0.57670    0.85330    0.24190    1.000
    C31      C        0.61990    0.87420    0.41580    1.000
    C32      C        0.75900    0.94680    0.92400    1.000
    H36      H        0.63340    0.92550    0.47680    1.000
    H37      H        0.59620    0.13590    0.41750    1.000
    H38      H        0.76780    0.00110    0.95600    1.000
    H39      H        0.81280    0.95180    0.90980    1.000
    H40      H        0.73220    0.91120    0.03350    1.000
    O25      O        0.03010    0.58860    0.24860    1.000
    O26      O        0.11000    0.62860    0.98230    1.000
    O27      O        0.08390    0.79620    0.75670    1.000
    C33      C        0.09090    0.64110    0.15020    1.000
    C34      C        0.14670    0.72340    0.24190    1.000
    C35      C        0.12580    0.74570    0.41580    1.000
    C36      C        0.05320    0.81220    0.92400    1.000
    H41      H        0.07450    0.70790    0.47680    1.000
    H42      H        0.86410    0.46030    0.41750    1.000
    H43      H        0.99890    0.76670    0.95600    1.000
    H44      H        0.04820    0.86100    0.90980    1.000
    H45      H        0.08880    0.82100    0.03350    1.000
    O28      O        0.44150    0.41140    0.75140    1.000
    O29      O        0.48140    0.37140    0.01770    1.000
    O30      O        0.28770    0.20380    0.24330    1.000
    C37      C        0.44980    0.35890    0.84980    1.000
    C38      C        0.42330    0.27660    0.75810    1.000
    C39      C        0.38010    0.25430    0.58420    1.000
    C40      C        0.24100    0.18780    0.07600    1.000
    H46      H        0.36660    0.29210    0.52320    1.000
    H47      H        0.40380    0.53970    0.58250    1.000
    H48      H        0.23220    0.23330    0.04400    1.000
    H49      H        0.18720    0.13900    0.09020    1.000
    H50      H        0.26780    0.17900    0.96650    1.000
    O31      O        0.96990    0.55850    0.75140    1.000
    O32      O        0.89000    0.51860    0.01770    1.000
    O33      O        0.91610    0.71230    0.24330    1.000
    C41      C        0.90910    0.55020    0.84980    1.000
    C42      C        0.85330    0.57670    0.75810    1.000
    C43      C        0.87420    0.61990    0.58420    1.000
    C44      C        0.94680    0.75900    0.07600    1.000
    H51      H        0.92550    0.63340    0.52320    1.000
    H52      H        0.13590    0.59620    0.58250    1.000
    H53      H        0.00110    0.76780    0.04400    1.000
    H54      H        0.95180    0.81280    0.09020    1.000
    H55      H        0.91120    0.73220    0.96650    1.000
    O34      O        0.58860    0.03010    0.75140    1.000
    O35      O        0.62860    0.11000    0.01770    1.000
    O36      O        0.79620    0.08390    0.24330    1.000
    C45      C        0.64110    0.09090    0.84980    1.000
    C46      C        0.72340    0.14670    0.75810    1.000
    C47      C        0.74570    0.12580    0.58420    1.000
    C48      C        0.81220    0.05320    0.07600    1.000
    H56      H        0.70790    0.07450    0.52320    1.000
    H57      H        0.46030    0.86410    0.58250    1.000
    H58      H        0.76670    0.99890    0.04400    1.000
    H59      H        0.86100    0.04820    0.09020    1.000
    H60      H        0.82100    0.08880    0.96650    1.000
    Cu1      Cu       0.47648    0.52352    0.84513    1.000
    O37      O        0.44170    0.55830    0.57830    1.000
    N1       N        0.43410    0.56590    0.60600    1.000
    C49      C        0.40520    0.59480    0.51300    1.000
    C50      C        0.36370    0.63630    0.40100    1.000
    H61      H        0.36800    0.63200    0.26900    1.000
    Cu2      Cu       0.47648    0.95296    0.84513    1.000
    O38      O        0.44170    0.88340    0.57830    1.000
    N2       N        0.43410    0.86820    0.60600    1.000
    C51      C        0.40520    0.81040    0.51300    1.000
    C52      C        0.36370    0.72740    0.40100    1.000
    H62      H        0.36800    0.73600    0.26900    1.000
    Cu3      Cu       0.04704    0.52352    0.84513    1.000
    O39      O        0.11660    0.55830    0.57830    1.000
    N3       N        0.13180    0.56590    0.60600    1.000
    C53      C        0.18960    0.59480    0.51300    1.000
    C54      C        0.27260    0.63630    0.40100    1.000
    H63      H        0.26400    0.63200    0.26900    1.000
    Cu4      Cu       0.52352    0.47648    0.15487    1.000
    O40      O        0.55830    0.44170    0.42170    1.000
    N4       N        0.56590    0.43410    0.39400    1.000
    C55      C        0.59480    0.40520    0.48700    1.000
    C56      C        0.63630    0.36370    0.59900    1.000
    H64      H        0.63200    0.36800    0.73100    1.000
    Cu5      Cu       0.95296    0.47648    0.15487    1.000
    O41      O        0.88340    0.44170    0.42170    1.000
    N5       N        0.86820    0.43410    0.39400    1.000
    C57      C        0.81040    0.40520    0.48700    1.000
    C58      C        0.72740    0.36370    0.59900    1.000
    H65      H        0.73600    0.36800    0.73100    1.000
    Cu6      Cu       0.52352    0.04704    0.15487    1.000
    O42      O        0.55830    0.11660    0.42170    1.000
    N6       N        0.56590    0.13180    0.39400    1.000
    C59      C        0.59480    0.18960    0.48700    1.000
    C60      C        0.63630    0.27260    0.59900    1.000
    H66      H        0.63200    0.26400    0.73100    1.000
    C61      C        0.82135    0.64270    0.49870    1.000
    C62      C        0.77865    0.55730    0.84820    1.000
    C63      C        0.84650    0.69300    0.31320    1.000
    H67      H        0.76565    0.53130    0.97010    1.000
    C64      C        0.35730    0.17865    0.49870    1.000
    C65      C        0.44270    0.22135    0.84820    1.000
    C66      C        0.30700    0.15350    0.31320    1.000
    H68      H        0.46870    0.23435    0.97010    1.000
    C67      C        0.82135    0.17865    0.49870    1.000
    C68      C        0.77865    0.22135    0.84820    1.000
    C69      C        0.84650    0.15350    0.31320    1.000
    H69      H        0.76565    0.23435    0.97010    1.000
    C70      C        0.64270    0.82135    0.50130    1.000
    C71      C        0.55730    0.77865    0.15180    1.000
    C72      C        0.69300    0.84650    0.68680    1.000
    H70      H        0.53130    0.76565    0.02990    1.000
    C73      C        0.17865    0.35730    0.50130    1.000
    C74      C        0.22135    0.44270    0.15180    1.000
    C75      C        0.15350    0.30700    0.68680    1.000
    H71      H        0.23435    0.46870    0.02990    1.000
    C76      C        0.17865    0.82135    0.50130    1.000
    C77      C        0.22135    0.77865    0.15180    1.000
    C78      C        0.15350    0.84650    0.68680    1.000
    H72      H        0.23435    0.76565    0.02990    1.000
    H73      H        0.30455    0.60910    0.44350    1.000
    H74      H        0.39090    0.69545    0.44350    1.000
    H75      H        0.30455    0.69545    0.44350    1.000
    H76      H        0.60910    0.30455    0.55650    1.000
    H77      H        0.69545    0.39090    0.55650    1.000
    H78      H        0.69545    0.30455    0.55650    1.000
