# CIF file generated by openbabel 3.1.0, see https://openbabel.org
data_I
_chemical_name_common 'image0'
_cell_length_a 20.8935
_cell_length_b 16.0332
_cell_length_c 28.1694
_cell_angle_alpha 90
_cell_angle_beta 90
_cell_angle_gamma 90
_space_group_name_H-M_alt 'P 1'
_space_group_name_Hall 'P 1'
loop_
    _symmetry_equiv_pos_as_xyz
    x,y,z
loop_
    _atom_site_label
    _atom_site_type_symbol
    _atom_site_fract_x
    _atom_site_fract_y
    _atom_site_fract_z
    _atom_site_occupancy
    Co1      Co       0.84315    0.24881    0.83513    1.000
    N1       N        0.79630    0.36000    0.81730    1.000
    N2       N        0.88390    0.24830    0.76370    1.000
    O1       O        0.89750    0.14310    0.84740    1.000
    O2       O        0.76370    0.18550    0.81090    1.000
    O3       O        0.81020    0.24730    0.90500    1.000
    C1       C        0.73390    0.38450    0.81910    1.000
    N3       N        0.82750    0.43340    0.81110    1.000
    C2       C        0.72890    0.46980    0.81460    1.000
    H1       H        0.86840    0.43810    0.80900    1.000
    C3       C        0.78750    0.49640    0.80870    1.000
    C4       C        0.67150    0.52630    0.82270    1.000
    H2       H        0.79910    0.55170    0.80370    1.000
    N4       N        0.61620    0.48480    0.82820    1.000
    O4       O        0.67760    0.60040    0.82550    1.000
    C5       C        0.55550    0.52120    0.83630    1.000
    C6       C        0.50490    0.46140    0.84560    1.000
    C7       C        0.54370    0.60460    0.84140    1.000
    H3       H        0.51260    0.40440    0.84350    1.000
    C8       C        0.44420    0.49130    0.85780    1.000
    C9       C        0.48370    0.63190    0.85650    1.000
    H4       H        0.57570    0.64320    0.83470    1.000
    C10      C        0.43330    0.57270    0.86400    1.000
    C11      C        0.39050    0.42760    0.86690    1.000
    C12      C        0.47200    0.72310    0.86050    1.000
    H5       H        0.39300    0.59100    0.87330    1.000
    O5       O        0.34670    0.44810    0.89360    1.000
    O6       O        0.42500    0.75240    0.88300    1.000
    O7       O        0.51140    0.77230    0.84140    1.000
    Co2      Co       0.27677    0.37802    0.92494    1.000
    Co3      Co       0.45832    0.87824    0.86409    1.000
    Co4      Co       0.39153    0.75059    0.95422    1.000
    O8       O        0.51030    0.97140    0.83280    1.000
    O9       O        0.38780    0.94990    0.89550    1.000
    O10      O        0.51760    0.88990    0.92160    1.000
    C13      C        0.50280    0.01350    0.79640    1.000
    O11      O        0.45420    0.01720    0.77320    1.000
    C14      C        0.55970    0.06040    0.77870    1.000
    C15      C        0.56040    0.09530    0.73390    1.000
    C16      C        0.61120    0.07620    0.81070    1.000
    H6       H        0.52520    0.08870    0.71410    1.000
    C17      C        0.61260    0.13960    0.71820    1.000
    C18      C        0.66380    0.12160    0.79610    1.000
    H7       H        0.60930    0.05580    0.84160    1.000
    N5       N        0.61390    0.17040    0.67090    1.000
    C19      C        0.66670    0.15210    0.74880    1.000
    C20      C        0.72140    0.14150    0.82760    1.000
    O12      O        0.71520    0.11260    0.86830    1.000
    O13      O        0.72100    0.03320    0.95650    1.000
    O14      O        0.72720    0.22930    0.95060    1.000
    C21      C        0.63890    0.24240    0.65610    1.000
    H8       H        0.70300    0.17970    0.73780    1.000
    C22      C        0.76350    0.27760    0.93030    1.000
    O15      O        0.65800    0.29640    0.68680    1.000
    C23      C        0.64080    0.26120    0.60780    1.000
    C24      C        0.75360    0.36790    0.93440    1.000
    C25      C        0.62110    0.21760    0.56530    1.000
    C26      C        0.67460    0.33120    0.58980    1.000
    C27      C        0.80460    0.42280    0.92610    1.000
    C28      C        0.69560    0.39740    0.94960    1.000
    N6       N        0.64340    0.25320    0.52420    1.000
    H9       H        0.59580    0.16990    0.56580    1.000
    N7       N        0.67410    0.32480    0.54310    1.000
    H10      H        0.69340    0.37350    0.60760    1.000
    H11      H        0.84490    0.40300    0.91780    1.000
    C29      C        0.79260    0.50950    0.93090    1.000
    C30      C        0.68500    0.48290    0.95090    1.000
    H12      H        0.66360    0.36050    0.95890    1.000
    H13      H        0.69150    0.36180    0.52510    1.000
    C31      C        0.73240    0.53840    0.94620    1.000
    C32      C        0.84450    0.57370    0.92110    1.000
    N8       N        0.62330    0.51810    0.96580    1.000
    H14      H        0.72570    0.59460    0.95280    1.000
    O16      O        0.83720    0.64620    0.94000    1.000
    C33      C        0.56650    0.47870    0.97250    1.000
    O17      O        0.56250    0.39910    0.97240    1.000
    C34      C        0.51030    0.53030    0.97360    1.000
    C35      C        0.44870    0.49470    0.97290    1.000
    C36      C        0.49960    0.61830    0.97060    1.000
    N9       N        0.40850    0.56230    0.97220    1.000
    H15      H        0.43780    0.43850    0.97290    1.000
    N10      N        0.43980    0.63790    0.96850    1.000
    H16      H        0.53250    0.65740    0.97030    1.000
    H17      H        0.36750    0.55800    0.97400    1.000
    O18      O        0.46980    0.81350    0.97880    1.000
    C37      C        0.51790    0.86070    0.96250    1.000
    C38      C        0.56780    0.88050    0.99860    1.000
    C39      C        0.62080    0.92800    0.98080    1.000
    C40      C        0.56440    0.85260    0.04220    1.000
    H18      H        0.62130    0.94890    0.95000    1.000
    C41      C        0.66970    0.94080    0.01090    1.000
    C42      C        0.61050    0.86830    0.07630    1.000
    H19      H        0.52910    0.82060    0.05080    1.000
    C43      C        0.66800    0.91540    0.05680    1.000
    C44      C        0.72840    0.99080    0.99380    1.000
    N11      N        0.61190    0.84370    0.12160    1.000
    H20      H        0.70250    0.92680    0.07660    1.000
    O19      O        0.78060    0.98200    0.01640    1.000
    C45      C        0.56710    0.79510    0.14410    1.000
    O20      O        0.52420    0.76070    0.12130    1.000
    C46      C        0.57860    0.76820    0.19070    1.000
    C47      C        0.53520    0.71890    0.21720    1.000
    C48      C        0.62510    0.78550    0.22630    1.000
    N12      N        0.56220    0.70900    0.25750    1.000
    H21      H        0.49570    0.69830    0.20750    1.000
    H22      H        0.65920    0.82190    0.22170    1.000
    H23      H        0.54570    0.67820    0.27930    1.000
    Co5      Co       0.15685    0.75119    0.33513    1.000
    N13      N        0.20370    0.64000    0.31730    1.000
    N14      N        0.11610    0.75170    0.26370    1.000
    O21      O        0.10250    0.85690    0.34740    1.000
    O22      O        0.23630    0.81450    0.31090    1.000
    O23      O        0.18980    0.75270    0.40500    1.000
    C49      C        0.26610    0.61550    0.31910    1.000
    N15      N        0.17250    0.56660    0.31110    1.000
    C50      C        0.27110    0.53020    0.31460    1.000
    H24      H        0.13160    0.56190    0.30900    1.000
    C51      C        0.21250    0.50360    0.30870    1.000
    C52      C        0.32850    0.47370    0.32270    1.000
    H25      H        0.20090    0.44830    0.30370    1.000
    N16      N        0.38380    0.51520    0.32820    1.000
    O24      O        0.32240    0.39960    0.32550    1.000
    C53      C        0.44450    0.47880    0.33630    1.000
    C54      C        0.49510    0.53860    0.34560    1.000
    C55      C        0.45630    0.39540    0.34140    1.000
    H26      H        0.48740    0.59560    0.34350    1.000
    C56      C        0.55580    0.50870    0.35780    1.000
    C57      C        0.51630    0.36810    0.35650    1.000
    H27      H        0.42430    0.35680    0.33470    1.000
    C58      C        0.56670    0.42730    0.36400    1.000
    C59      C        0.60950    0.57240    0.36690    1.000
    C60      C        0.52800    0.27690    0.36050    1.000
    H28      H        0.60700    0.40900    0.37330    1.000
    O25      O        0.65330    0.55190    0.39360    1.000
    O26      O        0.57500    0.24760    0.38300    1.000
    O27      O        0.48860    0.22770    0.34140    1.000
    Co6      Co       0.72323    0.62198    0.42494    1.000
    Co7      Co       0.54168    0.12176    0.36409    1.000
    Co8      Co       0.60847    0.24941    0.45422    1.000
    O28      O        0.48970    0.02860    0.33280    1.000
    O29      O        0.61220    0.05010    0.39550    1.000
    O30      O        0.48240    0.11010    0.42160    1.000
    C61      C        0.49720    0.98650    0.29640    1.000
    O31      O        0.54580    0.98280    0.27320    1.000
    C62      C        0.44030    0.93960    0.27870    1.000
    C63      C        0.43960    0.90470    0.23390    1.000
    C64      C        0.38880    0.92380    0.31070    1.000
    H29      H        0.47480    0.91130    0.21410    1.000
    C65      C        0.38740    0.86040    0.21820    1.000
    C66      C        0.33620    0.87840    0.29610    1.000
    H30      H        0.39070    0.94420    0.34160    1.000
    N17      N        0.38610    0.82960    0.17090    1.000
    C67      C        0.33330    0.84790    0.24880    1.000
    C68      C        0.27860    0.85850    0.32760    1.000
    O32      O        0.28480    0.88740    0.36830    1.000
    O33      O        0.27900    0.96680    0.45650    1.000
    O34      O        0.27280    0.77070    0.45060    1.000
    C69      C        0.36110    0.75760    0.15610    1.000
    H31      H        0.29700    0.82030    0.23780    1.000
    C70      C        0.23650    0.72240    0.43030    1.000
    O35      O        0.34200    0.70360    0.18680    1.000
    C71      C        0.35920    0.73880    0.10780    1.000
    C72      C        0.24640    0.63210    0.43440    1.000
    C73      C        0.37890    0.78240    0.06530    1.000
    C74      C        0.32540    0.66880    0.08980    1.000
    C75      C        0.19540    0.57720    0.42610    1.000
    C76      C        0.30440    0.60260    0.44960    1.000
    N18      N        0.35660    0.74680    0.02420    1.000
    H32      H        0.40420    0.83010    0.06580    1.000
    N19      N        0.32590    0.67520    0.04310    1.000
    H33      H        0.30660    0.62650    0.10760    1.000
    H34      H        0.15510    0.59700    0.41780    1.000
    C77      C        0.20740    0.49050    0.43090    1.000
    C78      C        0.31500    0.51710    0.45090    1.000
    H35      H        0.33640    0.63950    0.45890    1.000
    H36      H        0.30850    0.63820    0.02510    1.000
    C79      C        0.26760    0.46160    0.44620    1.000
    C80      C        0.15550    0.42630    0.42110    1.000
    N20      N        0.37670    0.48190    0.46580    1.000
    H37      H        0.27430    0.40540    0.45280    1.000
    O36      O        0.16280    0.35380    0.44000    1.000
    C81      C        0.43350    0.52130    0.47250    1.000
    O37      O        0.43750    0.60090    0.47240    1.000
    C82      C        0.48970    0.46970    0.47360    1.000
    C83      C        0.55130    0.50530    0.47290    1.000
    C84      C        0.50040    0.38170    0.47060    1.000
    N21      N        0.59150    0.43770    0.47220    1.000
    H38      H        0.56220    0.56150    0.47290    1.000
    N22      N        0.56020    0.36210    0.46850    1.000
    H39      H        0.46750    0.34260    0.47030    1.000
    H40      H        0.63250    0.44200    0.47400    1.000
    O38      O        0.53020    0.18650    0.47880    1.000
    C85      C        0.48210    0.13930    0.46250    1.000
    C86      C        0.43220    0.11950    0.49860    1.000
    C87      C        0.37920    0.07200    0.48080    1.000
    C88      C        0.43560    0.14740    0.54220    1.000
    H41      H        0.37870    0.05110    0.45000    1.000
    C89      C        0.33030    0.05920    0.51090    1.000
    C90      C        0.38950    0.13170    0.57630    1.000
    H42      H        0.47090    0.17940    0.55080    1.000
    C91      C        0.33200    0.08460    0.55680    1.000
    C92      C        0.27160    0.00920    0.49380    1.000
    N23      N        0.38810    0.15630    0.62160    1.000
    H43      H        0.29750    0.07320    0.57660    1.000
    O39      O        0.21940    0.01800    0.51640    1.000
    C93      C        0.43290    0.20490    0.64410    1.000
    O40      O        0.47580    0.23930    0.62130    1.000
    C94      C        0.42140    0.23180    0.69070    1.000
    C95      C        0.46480    0.28110    0.71720    1.000
    C96      C        0.37490    0.21450    0.72630    1.000
    N24      N        0.43780    0.29100    0.75750    1.000
    H44      H        0.50430    0.30170    0.70750    1.000
    H45      H        0.34080    0.17810    0.72170    1.000
    H46      H        0.45430    0.32180    0.77930    1.000
    Co9      Co       0.34315    0.25119    0.83513    1.000
    N25      N        0.29630    0.14000    0.81730    1.000
    N26      N        0.38390    0.25170    0.76370    1.000
    O41      O        0.39750    0.35690    0.84740    1.000
    O42      O        0.26370    0.31450    0.81090    1.000
    O43      O        0.31020    0.25270    0.90500    1.000
    C97      C        0.23390    0.11550    0.81910    1.000
    N27      N        0.32750    0.06660    0.81110    1.000
    C98      C        0.22890    0.03020    0.81460    1.000
    H47      H        0.36840    0.06190    0.80900    1.000
    C99      C        0.28750    0.00360    0.80870    1.000
    C100     C        0.17150    0.97370    0.82270    1.000
    H48      H        0.29910    0.94830    0.80370    1.000
    N28      N        0.11620    0.01520    0.82820    1.000
    O44      O        0.17760    0.89960    0.82550    1.000
    C101     C        0.05550    0.97880    0.83630    1.000
    C102     C        0.00490    0.03860    0.84560    1.000
    C103     C        0.04370    0.89540    0.84140    1.000
    H49      H        0.01260    0.09560    0.84350    1.000
    C104     C        0.94420    0.00870    0.85780    1.000
    C105     C        0.98370    0.86810    0.85650    1.000
    H50      H        0.07570    0.85680    0.83470    1.000
    C106     C        0.93330    0.92730    0.86400    1.000
    C107     C        0.89050    0.07240    0.86690    1.000
    C108     C        0.97200    0.77690    0.86050    1.000
    H51      H        0.89300    0.90900    0.87330    1.000
    O45      O        0.84670    0.05190    0.89360    1.000
    O46      O        0.92500    0.74760    0.88300    1.000
    O47      O        0.01140    0.72770    0.84140    1.000
    Co10     Co       0.77677    0.12198    0.92494    1.000
    Co11     Co       0.95832    0.62176    0.86409    1.000
    Co12     Co       0.89153    0.74941    0.95422    1.000
    O48      O        0.01030    0.52860    0.83280    1.000
    O49      O        0.88780    0.55010    0.89550    1.000
    O50      O        0.01760    0.61010    0.92160    1.000
    C109     C        0.00280    0.48650    0.79640    1.000
    O51      O        0.95420    0.48280    0.77320    1.000
    C110     C        0.05970    0.43960    0.77870    1.000
    C111     C        0.06040    0.40470    0.73390    1.000
    C112     C        0.11120    0.42380    0.81070    1.000
    H52      H        0.02520    0.41130    0.71410    1.000
    C113     C        0.11260    0.36040    0.71820    1.000
    C114     C        0.16380    0.37840    0.79610    1.000
    H53      H        0.10930    0.44420    0.84160    1.000
    N29      N        0.11390    0.32960    0.67090    1.000
    C115     C        0.16670    0.34790    0.74880    1.000
    C116     C        0.22140    0.35850    0.82760    1.000
    O52      O        0.21520    0.38740    0.86830    1.000
    O53      O        0.22100    0.46680    0.95650    1.000
    O54      O        0.22720    0.27070    0.95060    1.000
    C117     C        0.13890    0.25760    0.65610    1.000
    H54      H        0.20300    0.32030    0.73780    1.000
    C118     C        0.26350    0.22240    0.93030    1.000
    O55      O        0.15800    0.20360    0.68680    1.000
    C119     C        0.14080    0.23880    0.60780    1.000
    C120     C        0.25360    0.13210    0.93440    1.000
    C121     C        0.12110    0.28240    0.56530    1.000
    C122     C        0.17460    0.16880    0.58980    1.000
    C123     C        0.30460    0.07720    0.92610    1.000
    C124     C        0.19560    0.10260    0.94960    1.000
    N30      N        0.14340    0.24680    0.52420    1.000
    H55      H        0.09580    0.33010    0.56580    1.000
    N31      N        0.17410    0.17520    0.54310    1.000
    H56      H        0.19340    0.12650    0.60760    1.000
    H57      H        0.34490    0.09700    0.91780    1.000
    C125     C        0.29260    0.99050    0.93090    1.000
    C126     C        0.18500    0.01710    0.95090    1.000
    H58      H        0.16360    0.13950    0.95890    1.000
    H59      H        0.19150    0.13820    0.52510    1.000
    C127     C        0.23240    0.96160    0.94620    1.000
    C128     C        0.34450    0.92630    0.92110    1.000
    N32      N        0.12330    0.98190    0.96580    1.000
    H60      H        0.22570    0.90540    0.95280    1.000
    O56      O        0.33720    0.85380    0.94000    1.000
    C129     C        0.06650    0.02130    0.97250    1.000
    O57      O        0.06250    0.10090    0.97240    1.000
    C130     C        0.01030    0.96970    0.97360    1.000
    C131     C        0.94870    0.00530    0.97290    1.000
    C132     C        0.99960    0.88170    0.97060    1.000
    N33      N        0.90850    0.93770    0.97220    1.000
    H61      H        0.93780    0.06150    0.97290    1.000
    N34      N        0.93980    0.86210    0.96850    1.000
    H62      H        0.03250    0.84260    0.97030    1.000
    H63      H        0.86750    0.94200    0.97400    1.000
    O58      O        0.96980    0.68650    0.97880    1.000
    C133     C        0.01790    0.63930    0.96250    1.000
    C134     C        0.06780    0.61950    0.99860    1.000
    C135     C        0.12080    0.57200    0.98080    1.000
    C136     C        0.06440    0.64740    0.04220    1.000
    H64      H        0.12130    0.55110    0.95000    1.000
    C137     C        0.16970    0.55920    0.01090    1.000
    C138     C        0.11050    0.63170    0.07630    1.000
    H65      H        0.02910    0.67940    0.05080    1.000
    C139     C        0.16800    0.58460    0.05680    1.000
    C140     C        0.22840    0.50920    0.99380    1.000
    N35      N        0.11190    0.65630    0.12160    1.000
    H66      H        0.20250    0.57320    0.07660    1.000
    O59      O        0.28060    0.51800    0.01640    1.000
    C141     C        0.06710    0.70490    0.14410    1.000
    O60      O        0.02420    0.73930    0.12130    1.000
    C142     C        0.07860    0.73180    0.19070    1.000
    C143     C        0.03520    0.78110    0.21720    1.000
    C144     C        0.12510    0.71450    0.22630    1.000
    N36      N        0.06220    0.79100    0.25750    1.000
    H67      H        0.99570    0.80170    0.20750    1.000
    H68      H        0.15920    0.67810    0.22170    1.000
    H69      H        0.04570    0.82180    0.27930    1.000
    Co13     Co       0.65685    0.74881    0.33513    1.000
    N37      N        0.70370    0.86000    0.31730    1.000
    N38      N        0.61610    0.74830    0.26370    1.000
    O61      O        0.60250    0.64310    0.34740    1.000
    O62      O        0.73630    0.68550    0.31090    1.000
    O63      O        0.68980    0.74730    0.40500    1.000
    C145     C        0.76610    0.88450    0.31910    1.000
    N39      N        0.67250    0.93340    0.31110    1.000
    C146     C        0.77110    0.96980    0.31460    1.000
    H70      H        0.63160    0.93810    0.30900    1.000
    C147     C        0.71250    0.99640    0.30870    1.000
    C148     C        0.82850    0.02630    0.32270    1.000
    H71      H        0.70090    0.05170    0.30370    1.000
    N40      N        0.88380    0.98480    0.32820    1.000
    O64      O        0.82240    0.10040    0.32550    1.000
    C149     C        0.94450    0.02120    0.33630    1.000
    C150     C        0.99510    0.96140    0.34560    1.000
    C151     C        0.95630    0.10460    0.34140    1.000
    H72      H        0.98740    0.90440    0.34350    1.000
    C152     C        0.05580    0.99130    0.35780    1.000
    C153     C        0.01630    0.13190    0.35650    1.000
    H73      H        0.92430    0.14320    0.33470    1.000
    C154     C        0.06670    0.07270    0.36400    1.000
    C155     C        0.10950    0.92760    0.36690    1.000
    C156     C        0.02800    0.22310    0.36050    1.000
    H74      H        0.10700    0.09100    0.37330    1.000
    O65      O        0.15330    0.94810    0.39360    1.000
    O66      O        0.07500    0.25240    0.38300    1.000
    O67      O        0.98860    0.27230    0.34140    1.000
    Co14     Co       0.22323    0.87802    0.42494    1.000
    Co15     Co       0.04168    0.37824    0.36409    1.000
    Co16     Co       0.10847    0.25059    0.45422    1.000
    O68      O        0.98970    0.47140    0.33280    1.000
    O69      O        0.11220    0.44990    0.39550    1.000
    O70      O        0.98240    0.38990    0.42160    1.000
    C157     C        0.99720    0.51350    0.29640    1.000
    O71      O        0.04580    0.51720    0.27320    1.000
    C158     C        0.94030    0.56040    0.27870    1.000
    C159     C        0.93960    0.59530    0.23390    1.000
    C160     C        0.88880    0.57620    0.31070    1.000
    H75      H        0.97480    0.58870    0.21410    1.000
    C161     C        0.88740    0.63960    0.21820    1.000
    C162     C        0.83620    0.62160    0.29610    1.000
    H76      H        0.89070    0.55580    0.34160    1.000
    N41      N        0.88610    0.67040    0.17090    1.000
    C163     C        0.83330    0.65210    0.24880    1.000
    C164     C        0.77860    0.64150    0.32760    1.000
    O72      O        0.78480    0.61260    0.36830    1.000
    O73      O        0.77900    0.53320    0.45650    1.000
    O74      O        0.77280    0.72930    0.45060    1.000
    C165     C        0.86110    0.74240    0.15610    1.000
    H77      H        0.79700    0.67970    0.23780    1.000
    C166     C        0.73650    0.77760    0.43030    1.000
    O75      O        0.84200    0.79640    0.18680    1.000
    C167     C        0.85920    0.76120    0.10780    1.000
    C168     C        0.74640    0.86790    0.43440    1.000
    C169     C        0.87890    0.71760    0.06530    1.000
    C170     C        0.82540    0.83120    0.08980    1.000
    C171     C        0.69540    0.92280    0.42610    1.000
    C172     C        0.80440    0.89740    0.44960    1.000
    N42      N        0.85660    0.75320    0.02420    1.000
    H78      H        0.90420    0.66990    0.06580    1.000
    N43      N        0.82590    0.82480    0.04310    1.000
    H79      H        0.80660    0.87350    0.10760    1.000
    H80      H        0.65510    0.90300    0.41780    1.000
    C173     C        0.70740    0.00950    0.43090    1.000
    C174     C        0.81500    0.98290    0.45090    1.000
    H81      H        0.83640    0.86050    0.45890    1.000
    H82      H        0.80850    0.86180    0.02510    1.000
    C175     C        0.76760    0.03840    0.44620    1.000
    C176     C        0.65550    0.07370    0.42110    1.000
    N44      N        0.87670    0.01810    0.46580    1.000
    H83      H        0.77430    0.09460    0.45280    1.000
    O76      O        0.66280    0.14620    0.44000    1.000
    C177     C        0.93350    0.97870    0.47250    1.000
    O77      O        0.93750    0.89910    0.47240    1.000
    C178     C        0.98970    0.03030    0.47360    1.000
    C179     C        0.05130    0.99470    0.47290    1.000
    C180     C        0.00040    0.11830    0.47060    1.000
    N45      N        0.09150    0.06230    0.47220    1.000
    H84      H        0.06220    0.93850    0.47290    1.000
    N46      N        0.06020    0.13790    0.46850    1.000
    H85      H        0.96750    0.15740    0.47030    1.000
    H86      H        0.13250    0.05800    0.47400    1.000
    O78      O        0.03020    0.31350    0.47880    1.000
    C181     C        0.98210    0.36070    0.46250    1.000
    C182     C        0.93220    0.38050    0.49860    1.000
    C183     C        0.87920    0.42800    0.48080    1.000
    C184     C        0.93560    0.35260    0.54220    1.000
    H87      H        0.87870    0.44890    0.45000    1.000
    C185     C        0.83030    0.44080    0.51090    1.000
    C186     C        0.88950    0.36830    0.57630    1.000
    H88      H        0.97090    0.32060    0.55080    1.000
    C187     C        0.83200    0.41540    0.55680    1.000
    C188     C        0.77160    0.49080    0.49380    1.000
    N47      N        0.88810    0.34370    0.62160    1.000
    H89      H        0.79750    0.42680    0.57660    1.000
    O79      O        0.71940    0.48200    0.51640    1.000
    C189     C        0.93290    0.29510    0.64410    1.000
    O80      O        0.97580    0.26070    0.62130    1.000
    C190     C        0.92140    0.26820    0.69070    1.000
    C191     C        0.96480    0.21890    0.71720    1.000
    C192     C        0.87490    0.28550    0.72630    1.000
    N48      N        0.93780    0.20900    0.75750    1.000
    H90      H        0.00430    0.19830    0.70750    1.000
    H91      H        0.84080    0.32190    0.72170    1.000
    H92      H        0.95430    0.17820    0.77930    1.000
