# CIF file generated by openbabel 3.1.0, see https://openbabel.org
data_I
_chemical_name_common 'image0'
_cell_length_a 10.2033
_cell_length_b 10.2033
_cell_length_c 9.5545
_cell_angle_alpha 90
_cell_angle_beta 90
_cell_angle_gamma 90
_space_group_name_H-M_alt 'P 1'
_space_group_name_Hall 'P 1'
loop_
    _symmetry_equiv_pos_as_xyz
    x,y,z
loop_
    _atom_site_label
    _atom_site_type_symbol
    _atom_site_fract_x
    _atom_site_fract_y
    _atom_site_fract_z
    _atom_site_occupancy
    O1       O        0.19720    0.02440    0.22020    1.000
    O2       O        0.28790    0.76440    0.20100    1.000
    O3       O        0.69720    0.52440    0.72020    1.000
    O4       O        0.78790    0.26440    0.70100    1.000
    O5       O        0.80280    0.97560    0.22020    1.000
    O6       O        0.71210    0.23560    0.20100    1.000
    O7       O        0.30280    0.47560    0.72020    1.000
    O8       O        0.21210    0.73560    0.70100    1.000
    O9       O        0.02440    0.80280    0.77980    1.000
    O10      O        0.76440    0.71210    0.79900    1.000
    O11      O        0.52440    0.30280    0.27980    1.000
    O12      O        0.26440    0.21210    0.29900    1.000
    O13      O        0.97560    0.19720    0.77980    1.000
    O14      O        0.23560    0.28790    0.79900    1.000
    O15      O        0.47560    0.69720    0.27980    1.000
    O16      O        0.73560    0.78790    0.29900    1.000
    O17      O        0.80280    0.02440    0.77980    1.000
    O18      O        0.71210    0.76440    0.79900    1.000
    O19      O        0.30280    0.52440    0.27980    1.000
    O20      O        0.21210    0.26440    0.29900    1.000
    O21      O        0.19720    0.97560    0.77980    1.000
    O22      O        0.28790    0.23560    0.79900    1.000
    O23      O        0.69720    0.47560    0.27980    1.000
    O24      O        0.78790    0.73560    0.29900    1.000
    O25      O        0.97560    0.80280    0.22020    1.000
    O26      O        0.23560    0.71210    0.20100    1.000
    O27      O        0.47560    0.30280    0.72020    1.000
    O28      O        0.73560    0.21210    0.70100    1.000
    O29      O        0.02440    0.19720    0.22020    1.000
    O30      O        0.76440    0.28790    0.20100    1.000
    O31      O        0.52440    0.69720    0.72020    1.000
    O32      O        0.26440    0.78790    0.70100    1.000
    Co1      Co       0.13302    0.86698    0.13280    1.000
    P1       P        0.16368    0.83632    0.80760    1.000
    O33      O        0.20310    0.79690    0.95750    1.000
    H1       H        0.26600    0.73400    0.79880    1.000
    Co2      Co       0.63302    0.36698    0.63280    1.000
    P2       P        0.66368    0.33632    0.30760    1.000
    O34      O        0.70310    0.29690    0.45750    1.000
    H2       H        0.76600    0.23400    0.29880    1.000
    Co3      Co       0.86698    0.13302    0.13280    1.000
    P3       P        0.83632    0.16368    0.80760    1.000
    O35      O        0.79690    0.20310    0.95750    1.000
    H3       H        0.73400    0.26600    0.79880    1.000
    Co4      Co       0.36698    0.63302    0.63280    1.000
    P4       P        0.33632    0.66368    0.30760    1.000
    O36      O        0.29690    0.70310    0.45750    1.000
    H4       H        0.23400    0.76600    0.29880    1.000
    Co5      Co       0.86698    0.86698    0.86720    1.000
    P5       P        0.83632    0.83632    0.19240    1.000
    O37      O        0.79690    0.79690    0.04250    1.000
    H5       H        0.73400    0.73400    0.20120    1.000
    Co6      Co       0.36698    0.36698    0.36720    1.000
    P6       P        0.33632    0.33632    0.69240    1.000
    O38      O        0.29690    0.29690    0.54250    1.000
    H6       H        0.23400    0.23400    0.70120    1.000
    Co7      Co       0.13302    0.13302    0.86720    1.000
    P7       P        0.16368    0.16368    0.19240    1.000
    O39      O        0.20310    0.20310    0.04250    1.000
    H7       H        0.26600    0.26600    0.20120    1.000
    Co8      Co       0.63302    0.63302    0.36720    1.000
    P8       P        0.66368    0.66368    0.69240    1.000
    O40      O        0.70310    0.70310    0.54250    1.000
    H8       H        0.76600    0.76600    0.70120    1.000
