# CIF file generated by openbabel 3.1.0, see https://openbabel.org
data_I
_chemical_name_common 'image0'
_cell_length_a 20.547
_cell_length_b 9.966
_cell_length_c 15.687
_cell_angle_alpha 90
_cell_angle_beta 99.638
_cell_angle_gamma 90
_space_group_name_H-M_alt 'P 1'
_space_group_name_Hall 'P 1'
loop_
    _symmetry_equiv_pos_as_xyz
    x,y,z
loop_
    _atom_site_label
    _atom_site_type_symbol
    _atom_site_fract_x
    _atom_site_fract_y
    _atom_site_fract_z
    _atom_site_occupancy
    O1       O        0.06030    0.85866    0.88781    1.000
    C1       C        0.09058    0.75327    0.88496    1.000
    O2       O        0.15119    0.75402    0.88315    1.000
    C2       C        0.05479    0.62066    0.88380    1.000
    C3       C        0.98722    0.62023    0.88594    1.000
    H1       H        0.96500    0.70130    0.88710    1.000
    N1       N        0.12818    0.04220    0.43136    1.000
    C4       C        0.84534    0.61404    0.89236    1.000
    H2       H        0.86660    0.69660    0.89380    1.000
    C5       C        0.77792    0.61012    0.89341    1.000
    H3       H        0.75600    0.69160    0.89450    1.000
    C6       C        0.06800    0.92910    0.61080    1.000
    C7       C        0.15062    0.91430    0.61540    1.000
    C8       C        0.07637    0.93470    0.70040    1.000
    C9       C        0.15584    0.91130    0.70630    1.000
    O3       O        0.56030    0.35866    0.88781    1.000
    C10      C        0.59058    0.25327    0.88496    1.000
    O4       O        0.65119    0.25402    0.88315    1.000
    C11      C        0.55479    0.12066    0.88380    1.000
    C12      C        0.48722    0.12023    0.88594    1.000
    H4       H        0.46500    0.20130    0.88710    1.000
    N2       N        0.62818    0.54220    0.43136    1.000
    C13      C        0.34534    0.11404    0.89236    1.000
    H5       H        0.36660    0.19660    0.89380    1.000
    C14      C        0.27792    0.11012    0.89341    1.000
    H6       H        0.25600    0.19160    0.89450    1.000
    C15      C        0.56800    0.42910    0.61080    1.000
    C16      C        0.65062    0.41430    0.61540    1.000
    C17      C        0.57637    0.43470    0.70040    1.000
    C18      C        0.65584    0.41130    0.70630    1.000
    O5       O        0.06030    0.14134    0.88781    1.000
    C19      C        0.09058    0.24673    0.88496    1.000
    O6       O        0.15119    0.24598    0.88315    1.000
    C20      C        0.05479    0.37934    0.88380    1.000
    C21      C        0.98722    0.37977    0.88594    1.000
    H7       H        0.96500    0.29870    0.88710    1.000
    N3       N        0.12818    0.95780    0.43136    1.000
    C22      C        0.84534    0.38596    0.89236    1.000
    H8       H        0.86660    0.30340    0.89380    1.000
    C23      C        0.77792    0.38988    0.89341    1.000
    H9       H        0.75600    0.30840    0.89450    1.000
    C24      C        0.06800    0.07090    0.61080    1.000
    C25      C        0.15062    0.08570    0.61540    1.000
    C26      C        0.07637    0.06530    0.70040    1.000
    C27      C        0.15584    0.08870    0.70630    1.000
    O7       O        0.56030    0.64134    0.88781    1.000
    C28      C        0.59058    0.74673    0.88496    1.000
    O8       O        0.65119    0.74598    0.88315    1.000
    C29      C        0.55479    0.87934    0.88380    1.000
    C30      C        0.48722    0.87977    0.88594    1.000
    H10      H        0.46500    0.79870    0.88710    1.000
    N4       N        0.62818    0.45780    0.43136    1.000
    C31      C        0.34534    0.88596    0.89236    1.000
    H11      H        0.36660    0.80340    0.89380    1.000
    C32      C        0.27792    0.88988    0.89341    1.000
    H12      H        0.25600    0.80840    0.89450    1.000
    C33      C        0.56800    0.57090    0.61080    1.000
    C34      C        0.65062    0.58570    0.61540    1.000
    C35      C        0.57637    0.56530    0.70040    1.000
    C36      C        0.65584    0.58870    0.70630    1.000
    Co1      Co       0.13679    0.00000    0.88885    1.000
    N5       N        0.14999    0.00000    0.02928    1.000
    N6       N        0.12392    0.00000    0.74840    1.000
    N7       N        0.24286    0.00000    0.89293    1.000
    C37      C        0.09628    0.00000    0.06724    1.000
    C38      C        0.20799    0.00000    0.08325    1.000
    H13      H        0.05530    0.00000    0.03150    1.000
    C39      C        0.09702    0.00000    0.15473    1.000
    C40      C        0.21341    0.00000    0.17097    1.000
    H14      H        0.24650    0.00000    0.05950    1.000
    H15      H        0.05760    0.00000    0.17640    1.000
    C41      C        0.15597    0.00000    0.20987    1.000
    H16      H        0.25490    0.00000    0.20540    1.000
    C42      C        0.16178    0.00000    0.30256    1.000
    N8       N        0.11320    0.00000    0.33998    1.000
    H17      H        0.20370    0.00000    0.33580    1.000
    C43      C        0.10001    0.00000    0.47285    1.000
    H18      H        0.05300    0.00000    0.44780    1.000
    C44      C        0.11013    0.00000    0.56880    1.000
    Co2      Co       0.63679    0.50000    0.88885    1.000
    N9       N        0.64999    0.50000    0.02928    1.000
    N10      N        0.62392    0.50000    0.74840    1.000
    N11      N        0.74286    0.50000    0.89293    1.000
    C45      C        0.59628    0.50000    0.06724    1.000
    C46      C        0.70799    0.50000    0.08325    1.000
    H19      H        0.55530    0.50000    0.03150    1.000
    C47      C        0.59702    0.50000    0.15473    1.000
    C48      C        0.71341    0.50000    0.17097    1.000
    H20      H        0.74650    0.50000    0.05950    1.000
    H21      H        0.55760    0.50000    0.17640    1.000
    C49      C        0.65597    0.50000    0.20987    1.000
    H22      H        0.75490    0.50000    0.20540    1.000
    C50      C        0.66178    0.50000    0.30256    1.000
    N12      N        0.61320    0.50000    0.33998    1.000
    H23      H        0.70370    0.50000    0.33580    1.000
    C51      C        0.60001    0.50000    0.47285    1.000
    H24      H        0.55300    0.50000    0.44780    1.000
    C52      C        0.61013    0.50000    0.56880    1.000
    C53      C        0.08713    0.50000    0.88229    1.000
    C54      C        0.95247    0.50000    0.88635    1.000
    H25      H        0.13210    0.50000    0.88020    1.000
    C55      C        0.88098    0.50000    0.88925    1.000
    C56      C        0.58713    0.00000    0.88229    1.000
    C57      C        0.45247    0.00000    0.88635    1.000
    H26      H        0.63210    0.00000    0.88020    1.000
    C58      C        0.38098    0.00000    0.88925    1.000
    O9       O        0.93970    0.85866    0.11219    1.000
    C59      C        0.90942    0.75327    0.11504    1.000
    O10      O        0.84881    0.75402    0.11685    1.000
    C60      C        0.94521    0.62066    0.11620    1.000
    C61      C        0.01278    0.62023    0.11406    1.000
    H27      H        0.03500    0.70130    0.11290    1.000
    N13      N        0.87182    0.04220    0.56864    1.000
    C62      C        0.15466    0.61404    0.10764    1.000
    H28      H        0.13340    0.69660    0.10620    1.000
    C63      C        0.22208    0.61012    0.10659    1.000
    H29      H        0.24400    0.69160    0.10550    1.000
    C64      C        0.93200    0.92910    0.38920    1.000
    C65      C        0.84938    0.91430    0.38460    1.000
    C66      C        0.92363    0.93470    0.29960    1.000
    C67      C        0.84416    0.91130    0.29370    1.000
    O11      O        0.43970    0.35866    0.11219    1.000
    C68      C        0.40942    0.25327    0.11504    1.000
    O12      O        0.34881    0.25402    0.11685    1.000
    C69      C        0.44521    0.12066    0.11620    1.000
    C70      C        0.51278    0.12023    0.11406    1.000
    H30      H        0.53500    0.20130    0.11290    1.000
    N14      N        0.37182    0.54220    0.56864    1.000
    C71      C        0.65466    0.11404    0.10764    1.000
    H31      H        0.63340    0.19660    0.10620    1.000
    C72      C        0.72208    0.11012    0.10659    1.000
    H32      H        0.74400    0.19160    0.10550    1.000
    C73      C        0.43200    0.42910    0.38920    1.000
    C74      C        0.34938    0.41430    0.38460    1.000
    C75      C        0.42363    0.43470    0.29960    1.000
    C76      C        0.34416    0.41130    0.29370    1.000
    O13      O        0.93970    0.14134    0.11219    1.000
    C77      C        0.90942    0.24673    0.11504    1.000
    O14      O        0.84881    0.24598    0.11685    1.000
    C78      C        0.94521    0.37934    0.11620    1.000
    C79      C        0.01278    0.37977    0.11406    1.000
    H33      H        0.03500    0.29870    0.11290    1.000
    N15      N        0.87182    0.95780    0.56864    1.000
    C80      C        0.15466    0.38596    0.10764    1.000
    H34      H        0.13340    0.30340    0.10620    1.000
    C81      C        0.22208    0.38988    0.10659    1.000
    H35      H        0.24400    0.30840    0.10550    1.000
    C82      C        0.93200    0.07090    0.38920    1.000
    C83      C        0.84938    0.08570    0.38460    1.000
    C84      C        0.92363    0.06530    0.29960    1.000
    C85      C        0.84416    0.08870    0.29370    1.000
    O15      O        0.43970    0.64134    0.11219    1.000
    C86      C        0.40942    0.74673    0.11504    1.000
    O16      O        0.34881    0.74598    0.11685    1.000
    C87      C        0.44521    0.87934    0.11620    1.000
    C88      C        0.51278    0.87977    0.11406    1.000
    H36      H        0.53500    0.79870    0.11290    1.000
    N16      N        0.37182    0.45780    0.56864    1.000
    C89      C        0.65466    0.88596    0.10764    1.000
    H37      H        0.63340    0.80340    0.10620    1.000
    C90      C        0.72208    0.88988    0.10659    1.000
    H38      H        0.74400    0.80840    0.10550    1.000
    C91      C        0.43200    0.57090    0.38920    1.000
    C92      C        0.34938    0.58570    0.38460    1.000
    C93      C        0.42363    0.56530    0.29960    1.000
    C94      C        0.34416    0.58870    0.29370    1.000
    Co3      Co       0.86321    0.00000    0.11115    1.000
    N17      N        0.85001    0.00000    0.97072    1.000
    N18      N        0.87608    0.00000    0.25160    1.000
    N19      N        0.75714    0.00000    0.10707    1.000
    C95      C        0.90372    0.00000    0.93276    1.000
    C96      C        0.79201    0.00000    0.91675    1.000
    H39      H        0.94470    0.00000    0.96850    1.000
    C97      C        0.90298    0.00000    0.84527    1.000
    C98      C        0.78659    0.00000    0.82903    1.000
    H40      H        0.75350    0.00000    0.94050    1.000
    H41      H        0.94240    0.00000    0.82360    1.000
    C99      C        0.84403    0.00000    0.79013    1.000
    H42      H        0.74510    0.00000    0.79460    1.000
    C100     C        0.83822    0.00000    0.69744    1.000
    N20      N        0.88680    0.00000    0.66002    1.000
    H43      H        0.79630    0.00000    0.66420    1.000
    C101     C        0.89999    0.00000    0.52715    1.000
    H44      H        0.94700    0.00000    0.55220    1.000
    C102     C        0.88987    0.00000    0.43120    1.000
    Co4      Co       0.36321    0.50000    0.11115    1.000
    N21      N        0.35001    0.50000    0.97072    1.000
    N22      N        0.37608    0.50000    0.25160    1.000
    N23      N        0.25714    0.50000    0.10707    1.000
    C103     C        0.40372    0.50000    0.93276    1.000
    C104     C        0.29201    0.50000    0.91675    1.000
    H45      H        0.44470    0.50000    0.96850    1.000
    C105     C        0.40298    0.50000    0.84527    1.000
    C106     C        0.28659    0.50000    0.82903    1.000
    H46      H        0.25350    0.50000    0.94050    1.000
    H47      H        0.44240    0.50000    0.82360    1.000
    C107     C        0.34403    0.50000    0.79013    1.000
    H48      H        0.24510    0.50000    0.79460    1.000
    C108     C        0.33822    0.50000    0.69744    1.000
    N24      N        0.38680    0.50000    0.66002    1.000
    H49      H        0.29630    0.50000    0.66420    1.000
    C109     C        0.39999    0.50000    0.52715    1.000
    H50      H        0.44700    0.50000    0.55220    1.000
    C110     C        0.38987    0.50000    0.43120    1.000
    C111     C        0.91287    0.50000    0.11771    1.000
    C112     C        0.04753    0.50000    0.11365    1.000
    H51      H        0.86790    0.50000    0.11980    1.000
    C113     C        0.11902    0.50000    0.11075    1.000
    C114     C        0.41287    0.00000    0.11771    1.000
    C115     C        0.54753    0.00000    0.11365    1.000
    H52      H        0.36790    0.00000    0.11980    1.000
    C116     C        0.61902    0.00000    0.11075    1.000
