# CIF file generated by openbabel 3.1.0, see https://openbabel.org
data_I
_chemical_name_common 'image0'
_cell_length_a 9.1332
_cell_length_b 13.8397
_cell_length_c 9.0847
_cell_angle_alpha 90
_cell_angle_beta 117.392
_cell_angle_gamma 90
_space_group_name_H-M_alt 'P 1'
_space_group_name_Hall 'P 1'
loop_
    _symmetry_equiv_pos_as_xyz
    x,y,z
loop_
    _atom_site_label
    _atom_site_type_symbol
    _atom_site_fract_x
    _atom_site_fract_y
    _atom_site_fract_z
    _atom_site_occupancy
    Co1      Co       0.27759    0.59584    0.22192    1.000
    O1       O        0.02080    0.60870    0.10640    1.000
    O2       O        0.79370    0.53300    0.92370    1.000
    C1       C        0.94550    0.53990    0.00900    1.000
    O3       O        0.52610    0.55550    0.34080    1.000
    O4       O        0.71200    0.48440    0.57270    1.000
    C2       C        0.57070    0.51140    0.47620    1.000
    N1       N        0.31310    0.72360    0.35790    1.000
    N2       N        0.43200    0.78940    0.38350    1.000
    H1       H        0.49580    0.78950    0.33460    1.000
    N3       N        0.31730    0.83210    0.53940    1.000
    C3       C        0.24800    0.75220    0.45350    1.000
    H2       H        0.16030    0.71920    0.46050    1.000
    C4       C        0.43710    0.85420    0.49500    1.000
    N4       N        0.54200    0.92660    0.54000    1.000
    H3       H        0.61030    0.93290    0.49680    1.000
    H4       H        0.54430    0.96880    0.61360    1.000
    Co2      Co       0.72241    0.09584    0.27808    1.000
    O5       O        0.97920    0.10870    0.39360    1.000
    O6       O        0.20630    0.03300    0.57630    1.000
    C5       C        0.05450    0.03990    0.49100    1.000
    O7       O        0.47390    0.05550    0.15920    1.000
    O8       O        0.28800    0.98440    0.92730    1.000
    C6       C        0.42930    0.01140    0.02380    1.000
    N5       N        0.68690    0.22360    0.14210    1.000
    N6       N        0.56800    0.28940    0.11650    1.000
    H5       H        0.50420    0.28950    0.16540    1.000
    N7       N        0.68270    0.33210    0.96060    1.000
    C7       C        0.75200    0.25220    0.04650    1.000
    H6       H        0.83970    0.21920    0.03950    1.000
    C8       C        0.56290    0.35420    0.00500    1.000
    N8       N        0.45800    0.42660    0.96000    1.000
    H7       H        0.38970    0.43290    0.00320    1.000
    H8       H        0.45570    0.46880    0.88640    1.000
    Co3      Co       0.72241    0.40416    0.77808    1.000
    O9       O        0.97920    0.39130    0.89360    1.000
    O10      O        0.20630    0.46700    0.07630    1.000
    C9       C        0.05450    0.46010    0.99100    1.000
    O11      O        0.47390    0.44450    0.65920    1.000
    O12      O        0.28800    0.51560    0.42730    1.000
    C10      C        0.42930    0.48860    0.52380    1.000
    N9       N        0.68690    0.27640    0.64210    1.000
    N10      N        0.56800    0.21060    0.61650    1.000
    H9       H        0.50420    0.21050    0.66540    1.000
    N11      N        0.68270    0.16790    0.46060    1.000
    C11      C        0.75200    0.24780    0.54650    1.000
    H10      H        0.83970    0.28080    0.53950    1.000
    C12      C        0.56290    0.14580    0.50500    1.000
    N12      N        0.45800    0.07340    0.46000    1.000
    H11      H        0.38970    0.06710    0.50320    1.000
    H12      H        0.45570    0.03120    0.38640    1.000
    Co4      Co       0.27759    0.90416    0.72192    1.000
    O13      O        0.02080    0.89130    0.60640    1.000
    O14      O        0.79370    0.96700    0.42370    1.000
    C13      C        0.94550    0.96010    0.50900    1.000
    O15      O        0.52610    0.94450    0.84080    1.000
    O16      O        0.71200    0.01560    0.07270    1.000
    C14      C        0.57070    0.98860    0.97620    1.000
    N13      N        0.31310    0.77640    0.85790    1.000
    N14      N        0.43200    0.71060    0.88350    1.000
    H13      H        0.49580    0.71050    0.83460    1.000
    N15      N        0.31730    0.66790    0.03940    1.000
    C15      C        0.24800    0.74780    0.95350    1.000
    H14      H        0.16030    0.78080    0.96050    1.000
    C16      C        0.43710    0.64580    0.99500    1.000
    N16      N        0.54200    0.57340    0.04000    1.000
    H15      H        0.61030    0.56710    0.99680    1.000
    H16      H        0.54430    0.53120    0.11360    1.000
