# CIF file generated by openbabel 3.1.0, see https://openbabel.org
data_I
_chemical_name_common 'image0'
_cell_length_a 10.119
_cell_length_b 13.671
_cell_length_c 15.009
_cell_angle_alpha 111.271
_cell_angle_beta 101.926
_cell_angle_gamma 99.461
_space_group_name_H-M_alt 'P 1'
_space_group_name_Hall 'P 1'
loop_
    _symmetry_equiv_pos_as_xyz
    x,y,z
loop_
    _atom_site_label
    _atom_site_type_symbol
    _atom_site_fract_x
    _atom_site_fract_y
    _atom_site_fract_z
    _atom_site_occupancy
    Co1      Co       0.53041    0.51156    0.15017    1.000
    C1       C        0.74930    0.73480    0.26500    1.000
    H1       H        0.81210    0.69270    0.25140    1.000
    C2       C        0.80390    0.84560    0.32200    1.000
    H2       H        0.90000    0.87660    0.34580    1.000
    C3       C        0.71060    0.90880    0.34240    1.000
    C4       C        0.56770    0.85770    0.30360    1.000
    H3       H        0.50220    0.89770    0.31480    1.000
    C5       C        0.52560    0.74670    0.24840    1.000
    H4       H        0.43000    0.71340    0.22380    1.000
    C6       C        0.87730    0.09120    0.42640    1.000
    C7       C        0.89140    0.20290    0.50150    1.000
    C8       C        0.97410    0.29240    0.49830    1.000
    H5       H        0.02180    0.28210    0.45030    1.000
    C9       C        0.98640    0.39600    0.56500    1.000
    H6       H        0.04090    0.45570    0.56180    1.000
    C10      C        0.91730    0.41060    0.63660    1.000
    C11      C        0.83800    0.32270    0.64180    1.000
    H7       H        0.79280    0.33330    0.69130    1.000
    C12      C        0.82440    0.21940    0.57490    1.000
    H8       H        0.76980    0.16030    0.57890    1.000
    C13      C        0.00260    0.60840    0.73100    1.000
    C14      C        0.14530    0.62270    0.74650    1.000
    H9       H        0.18320    0.56320    0.73160    1.000
    C15      C        0.23000    0.72670    0.78430    1.000
    H10      H        0.32550    0.73720    0.79210    1.000
    C16      C        0.17500    0.81660    0.81120    1.000
    C17      C        0.03220    0.79990    0.79540    1.000
    H11      H        0.99450    0.85950    0.81260    1.000
    C18      C        0.94470    0.69660    0.75470    1.000
    H12      H        0.84850    0.68590    0.74320    1.000
    C19      C        0.27400    0.92680    0.85450    1.000
    C20      C        0.30930    0.11520    0.97500    1.000
    C21      C        0.41550    0.16590    0.95070    1.000
    H13      H        0.44720    0.12560    0.89880    1.000
    C22      C        0.47490    0.27390    0.00160    1.000
    H14      H        0.54850    0.30460    0.98370    1.000
    C23      C        0.33200    0.28990    0.09730    1.000
    H15      H        0.30000    0.33270    0.14790    1.000
    C24      C        0.26850    0.18130    0.05190    1.000
    H16      H        0.19770    0.15190    0.07290    1.000
    C25      C        0.51670    0.50790    0.31310    1.000
    C26      C        0.50940    0.50410    0.41040    1.000
    C27      C        0.61500    0.48240    0.46770    1.000
    H17      H        0.69280    0.47010    0.44600    1.000
    C28      C        0.60710    0.47870    0.55650    1.000
    H18      H        0.68000    0.46460    0.59490    1.000
    C29      C        0.89180    0.48810    0.91960    1.000
    H19      H        0.81980    0.47940    0.86540    1.000
    C30      C        0.02610    0.49130    0.91130    1.000
    H20      H        0.04320    0.48610    0.85150    1.000
    C31      C        0.13540    0.50220    0.98990    1.000
    C32      C        0.27990    0.51020    0.98150    1.000
    N1       N        0.61230    0.68420    0.22810    1.000
    N2       N        0.75010    0.02060    0.40140    1.000
    N3       N        0.23800    0.00560    0.92650    1.000
    N4       N        0.43580    0.33900    0.07490    1.000
    O1       O        0.97090    0.06710    0.39040    1.000
    O2       O        0.90880    0.50860    0.70160    1.000
    O3       O        0.38000    0.94340    0.82990    1.000
    O4       O        0.62360    0.49550    0.28550    1.000
    O5       O        0.41520    0.52440    0.26120    1.000
    O6       O        0.37740    0.53650    0.05880    1.000
    O7       O        0.29550    0.49370    0.89640    1.000
    Co2      Co       0.46959    0.48844    0.84983    1.000
    C33      C        0.25070    0.26520    0.73500    1.000
    H21      H        0.18790    0.30730    0.74860    1.000
    C34      C        0.19610    0.15440    0.67800    1.000
    H22      H        0.10000    0.12340    0.65420    1.000
    C35      C        0.28940    0.09120    0.65760    1.000
    C36      C        0.43230    0.14230    0.69640    1.000
    H23      H        0.49780    0.10230    0.68520    1.000
    C37      C        0.47440    0.25330    0.75160    1.000
    H24      H        0.57000    0.28660    0.77620    1.000
    C38      C        0.12270    0.90880    0.57360    1.000
    C39      C        0.10860    0.79710    0.49850    1.000
    C40      C        0.02590    0.70760    0.50170    1.000
    H25      H        0.97820    0.71790    0.54970    1.000
    C41      C        0.01360    0.60400    0.43500    1.000
    H26      H        0.95910    0.54430    0.43820    1.000
    C42      C        0.08270    0.58940    0.36340    1.000
    C43      C        0.16200    0.67730    0.35820    1.000
    H27      H        0.20720    0.66670    0.30870    1.000
    C44      C        0.17560    0.78060    0.42510    1.000
    H28      H        0.23020    0.83970    0.42110    1.000
    C45      C        0.99740    0.39160    0.26900    1.000
    C46      C        0.85470    0.37730    0.25350    1.000
    H29      H        0.81680    0.43680    0.26840    1.000
    C47      C        0.77000    0.27330    0.21570    1.000
    H30      H        0.67450    0.26280    0.20790    1.000
    C48      C        0.82500    0.18340    0.18880    1.000
    C49      C        0.96780    0.20010    0.20460    1.000
    H31      H        0.00550    0.14050    0.18740    1.000
    C50      C        0.05530    0.30340    0.24530    1.000
    H32      H        0.15150    0.31410    0.25680    1.000
    C51      C        0.72600    0.07320    0.14550    1.000
    C52      C        0.69070    0.88480    0.02500    1.000
    C53      C        0.58450    0.83410    0.04930    1.000
    H33      H        0.55280    0.87440    0.10120    1.000
    C54      C        0.52510    0.72610    0.99840    1.000
    H34      H        0.45150    0.69540    0.01630    1.000
    C55      C        0.66800    0.71010    0.90270    1.000
    H35      H        0.70000    0.66730    0.85210    1.000
    C56      C        0.73150    0.81870    0.94810    1.000
    H36      H        0.80230    0.84810    0.92710    1.000
    C57      C        0.48330    0.49210    0.68690    1.000
    C58      C        0.49060    0.49590    0.58960    1.000
    C59      C        0.38500    0.51760    0.53230    1.000
    H37      H        0.30720    0.52990    0.55400    1.000
    C60      C        0.39290    0.52130    0.44350    1.000
    H38      H        0.32000    0.53540    0.40510    1.000
    C61      C        0.10820    0.51190    0.08040    1.000
    H39      H        0.18020    0.52060    0.13460    1.000
    C62      C        0.97390    0.50870    0.08870    1.000
    H40      H        0.95680    0.51390    0.14850    1.000
    C63      C        0.86460    0.49780    0.01010    1.000
    C64      C        0.72010    0.48980    0.01850    1.000
    N5       N        0.38770    0.31580    0.77190    1.000
    N6       N        0.24990    0.97940    0.59860    1.000
    N7       N        0.76200    0.99440    0.07350    1.000
    N8       N        0.56420    0.66100    0.92510    1.000
    O8       O        0.02910    0.93290    0.60960    1.000
    O9       O        0.09120    0.49140    0.29840    1.000
    O10      O        0.62000    0.05660    0.17010    1.000
    O11      O        0.37640    0.50450    0.71450    1.000
    O12      O        0.58480    0.47560    0.73880    1.000
    O13      O        0.62260    0.46350    0.94120    1.000
    O14      O        0.70450    0.50630    0.10360    1.000
