# CIF file generated by openbabel 3.1.0, see https://openbabel.org
data_I
_chemical_name_common 'image0'
_cell_length_a 15.4017
_cell_length_b 15.4017
_cell_length_c 28.9421
_cell_angle_alpha 90
_cell_angle_beta 90
_cell_angle_gamma 90
_space_group_name_H-M_alt 'P 1'
_space_group_name_Hall 'P 1'
loop_
    _symmetry_equiv_pos_as_xyz
    x,y,z
loop_
    _atom_site_label
    _atom_site_type_symbol
    _atom_site_fract_x
    _atom_site_fract_y
    _atom_site_fract_z
    _atom_site_occupancy
    Fe1      Fe       0.40230    0.81872    0.05054    1.000
    Fe2      Fe       0.49206    0.04938    0.04689    1.000
    P1       P        0.32226    0.98011    0.99837    1.000
    P2       P        0.29420    0.67686    0.11051    1.000
    O1       O        0.36765    0.04405    0.03193    1.000
    O2       O        0.38053    0.96567    0.95588    1.000
    O3       O        0.30686    0.89348    0.02391    1.000
    O4       O        0.23569    0.01878    0.98257    1.000
    O5       O        0.32034    0.72477    0.06682    1.000
    O6       O        0.23578    0.73578    0.13918    1.000
    O7       O        0.23811    0.59634    0.09629    1.000
    O8       O        0.37141    0.64397    0.13817    1.000
    O9       O        0.51073    0.83023    0.93027    1.000
    O10      O        0.41794    0.75912    0.99063    1.000
    O11      O        0.49205    0.91536    0.02439    1.000
    Fe3      Fe       0.90230    0.31872    0.55054    1.000
    Fe4      Fe       0.99206    0.54938    0.54689    1.000
    P3       P        0.82226    0.48011    0.49837    1.000
    P4       P        0.79420    0.17686    0.61051    1.000
    O12      O        0.86765    0.54405    0.53193    1.000
    O13      O        0.88053    0.46567    0.45588    1.000
    O14      O        0.80686    0.39348    0.52391    1.000
    O15      O        0.73569    0.51878    0.48257    1.000
    O16      O        0.82034    0.22477    0.56682    1.000
    O17      O        0.73578    0.23578    0.63918    1.000
    O18      O        0.73811    0.09634    0.59629    1.000
    O19      O        0.87141    0.14397    0.63817    1.000
    O20      O        0.01073    0.33023    0.43027    1.000
    O21      O        0.91794    0.25912    0.49063    1.000
    O22      O        0.99205    0.41536    0.52439    1.000
    Fe5      Fe       0.09770    0.18128    0.55054    1.000
    Fe6      Fe       0.00794    0.95062    0.54689    1.000
    P5       P        0.17774    0.01989    0.49837    1.000
    P6       P        0.20580    0.32314    0.61051    1.000
    O23      O        0.13235    0.95595    0.53193    1.000
    O24      O        0.11947    0.03433    0.45588    1.000
    O25      O        0.19314    0.10652    0.52391    1.000
    O26      O        0.26431    0.98122    0.48257    1.000
    O27      O        0.17966    0.27523    0.56682    1.000
    O28      O        0.26422    0.26422    0.63918    1.000
    O29      O        0.26189    0.40366    0.59629    1.000
    O30      O        0.12859    0.35603    0.63817    1.000
    O31      O        0.98927    0.16977    0.43027    1.000
    O32      O        0.08206    0.24088    0.49063    1.000
    O33      O        0.00795    0.08464    0.52439    1.000
    Fe7      Fe       0.59770    0.68128    0.05054    1.000
    Fe8      Fe       0.50794    0.45062    0.04689    1.000
    P7       P        0.67774    0.51989    0.99837    1.000
    P8       P        0.70580    0.82314    0.11051    1.000
    O34      O        0.63235    0.45595    0.03193    1.000
    O35      O        0.61947    0.53433    0.95588    1.000
    O36      O        0.69314    0.60652    0.02391    1.000
    O37      O        0.76431    0.48122    0.98257    1.000
    O38      O        0.67966    0.77523    0.06682    1.000
    O39      O        0.76422    0.76422    0.13918    1.000
    O40      O        0.76189    0.90366    0.09629    1.000
    O41      O        0.62859    0.85603    0.13817    1.000
    O42      O        0.48927    0.66977    0.93027    1.000
    O43      O        0.58206    0.74088    0.99063    1.000
    O44      O        0.50795    0.58464    0.02439    1.000
    Fe9      Fe       0.93128    0.65230    0.30054    1.000
    Fe10     Fe       0.70062    0.74206    0.29689    1.000
    P9       P        0.76989    0.57226    0.24837    1.000
    P10      P        0.07314    0.54420    0.36051    1.000
    O45      O        0.70595    0.61765    0.28193    1.000
    O46      O        0.78433    0.63053    0.20588    1.000
    O47      O        0.85652    0.55686    0.27391    1.000
    O48      O        0.73122    0.48569    0.23257    1.000
    O49      O        0.02523    0.57034    0.31682    1.000
    O50      O        0.01422    0.48578    0.38918    1.000
    O51      O        0.15366    0.48811    0.34629    1.000
    O52      O        0.10603    0.62141    0.38817    1.000
    O53      O        0.91977    0.76073    0.18027    1.000
    O54      O        0.99088    0.66794    0.24063    1.000
    O55      O        0.83464    0.74205    0.27439    1.000
    Fe11     Fe       0.43128    0.15230    0.80054    1.000
    Fe12     Fe       0.20062    0.24206    0.79689    1.000
    P11      P        0.26989    0.07226    0.74837    1.000
    P12      P        0.57314    0.04420    0.86051    1.000
    O56      O        0.20595    0.11765    0.78193    1.000
    O57      O        0.28433    0.13053    0.70588    1.000
    O58      O        0.35652    0.05686    0.77391    1.000
    O59      O        0.23122    0.98569    0.73257    1.000
    O60      O        0.52523    0.07034    0.81682    1.000
    O61      O        0.51422    0.98578    0.88918    1.000
    O62      O        0.65366    0.98811    0.84629    1.000
    O63      O        0.60603    0.12141    0.88817    1.000
    O64      O        0.41977    0.26073    0.68027    1.000
    O65      O        0.49088    0.16794    0.74063    1.000
    O66      O        0.33464    0.24205    0.77439    1.000
    Fe13     Fe       0.56872    0.34770    0.80054    1.000
    Fe14     Fe       0.79938    0.25794    0.79689    1.000
    P13      P        0.73011    0.42774    0.74837    1.000
    P14      P        0.42686    0.45580    0.86051    1.000
    O67      O        0.79405    0.38235    0.78193    1.000
    O68      O        0.71567    0.36947    0.70588    1.000
    O69      O        0.64348    0.44314    0.77391    1.000
    O70      O        0.76878    0.51431    0.73257    1.000
    O71      O        0.47477    0.42966    0.81682    1.000
    O72      O        0.48578    0.51422    0.88918    1.000
    O73      O        0.34634    0.51189    0.84629    1.000
    O74      O        0.39397    0.37859    0.88817    1.000
    O75      O        0.58023    0.23927    0.68027    1.000
    O76      O        0.50912    0.33206    0.74063    1.000
    O77      O        0.66536    0.25795    0.77439    1.000
    Fe15     Fe       0.06872    0.84770    0.30054    1.000
    Fe16     Fe       0.29938    0.75794    0.29689    1.000
    P15      P        0.23011    0.92774    0.24837    1.000
    P16      P        0.92686    0.95580    0.36051    1.000
    O78      O        0.29405    0.88235    0.28193    1.000
    O79      O        0.21567    0.86947    0.20588    1.000
    O80      O        0.14348    0.94314    0.27391    1.000
    O81      O        0.26878    0.01431    0.23257    1.000
    O82      O        0.97477    0.92966    0.31682    1.000
    O83      O        0.98578    0.01422    0.38918    1.000
    O84      O        0.84634    0.01189    0.34629    1.000
    O85      O        0.89397    0.87859    0.38817    1.000
    O86      O        0.08023    0.73927    0.18027    1.000
    O87      O        0.00912    0.83206    0.24063    1.000
    O88      O        0.16536    0.75795    0.27439    1.000
    Fe17     Fe       0.59770    0.18128    0.94946    1.000
    Fe18     Fe       0.50794    0.95062    0.95311    1.000
    P17      P        0.67774    0.01989    0.00163    1.000
    P18      P        0.70580    0.32314    0.88949    1.000
    O89      O        0.63235    0.95595    0.96807    1.000
    O90      O        0.61947    0.03433    0.04412    1.000
    O91      O        0.69314    0.10652    0.97609    1.000
    O92      O        0.76431    0.98122    0.01743    1.000
    O93      O        0.67966    0.27523    0.93318    1.000
    O94      O        0.76422    0.26422    0.86082    1.000
    O95      O        0.76189    0.40366    0.90371    1.000
    O96      O        0.62859    0.35603    0.86183    1.000
    O97      O        0.48927    0.16977    0.06973    1.000
    O98      O        0.58206    0.24088    0.00937    1.000
    O99      O        0.50795    0.08464    0.97561    1.000
    Fe19     Fe       0.09770    0.68128    0.44946    1.000
    Fe20     Fe       0.00794    0.45062    0.45311    1.000
    P19      P        0.17774    0.51989    0.50163    1.000
    P20      P        0.20580    0.82314    0.38949    1.000
    O100     O        0.13235    0.45595    0.46807    1.000
    O101     O        0.11947    0.53433    0.54412    1.000
    O102     O        0.19314    0.60652    0.47609    1.000
    O103     O        0.26431    0.48122    0.51743    1.000
    O104     O        0.17966    0.77523    0.43318    1.000
    O105     O        0.26422    0.76422    0.36082    1.000
    O106     O        0.26189    0.90366    0.40371    1.000
    O107     O        0.12859    0.85603    0.36183    1.000
    O108     O        0.98927    0.66977    0.56973    1.000
    O109     O        0.08206    0.74088    0.50937    1.000
    O110     O        0.00795    0.58464    0.47561    1.000
    Fe21     Fe       0.90230    0.81872    0.44946    1.000
    Fe22     Fe       0.99206    0.04938    0.45311    1.000
    P21      P        0.82226    0.98011    0.50163    1.000
    P22      P        0.79420    0.67686    0.38949    1.000
    O111     O        0.86765    0.04405    0.46807    1.000
    O112     O        0.88053    0.96567    0.54412    1.000
    O113     O        0.80686    0.89348    0.47609    1.000
    O114     O        0.73569    0.01878    0.51743    1.000
    O115     O        0.82034    0.72477    0.43318    1.000
    O116     O        0.73578    0.73578    0.36082    1.000
    O117     O        0.73811    0.59634    0.40371    1.000
    O118     O        0.87141    0.64397    0.36183    1.000
    O119     O        0.01073    0.83023    0.56973    1.000
    O120     O        0.91794    0.75912    0.50937    1.000
    O121     O        0.99205    0.91536    0.47561    1.000
    Fe23     Fe       0.40230    0.31872    0.94946    1.000
    Fe24     Fe       0.49206    0.54938    0.95311    1.000
    P23      P        0.32226    0.48011    0.00163    1.000
    P24      P        0.29420    0.17686    0.88949    1.000
    O122     O        0.36765    0.54405    0.96807    1.000
    O123     O        0.38053    0.46567    0.04412    1.000
    O124     O        0.30686    0.39348    0.97609    1.000
    O125     O        0.23569    0.51878    0.01743    1.000
    O126     O        0.32034    0.22477    0.93318    1.000
    O127     O        0.23578    0.23578    0.86082    1.000
    O128     O        0.23811    0.09634    0.90371    1.000
    O129     O        0.37141    0.14397    0.86183    1.000
    O130     O        0.51073    0.33023    0.06973    1.000
    O131     O        0.41794    0.25912    0.00937    1.000
    O132     O        0.49205    0.41536    0.97561    1.000
    Fe25     Fe       0.06872    0.34770    0.69946    1.000
    Fe26     Fe       0.29938    0.25794    0.70311    1.000
    P25      P        0.23011    0.42774    0.75163    1.000
    P26      P        0.92686    0.45580    0.63949    1.000
    O133     O        0.29405    0.38235    0.71807    1.000
    O134     O        0.21567    0.36947    0.79412    1.000
    O135     O        0.14348    0.44314    0.72609    1.000
    O136     O        0.26878    0.51431    0.76743    1.000
    O137     O        0.97477    0.42966    0.68318    1.000
    O138     O        0.98578    0.51422    0.61082    1.000
    O139     O        0.84634    0.51189    0.65371    1.000
    O140     O        0.89397    0.37859    0.61183    1.000
    O141     O        0.08023    0.23927    0.81973    1.000
    O142     O        0.00912    0.33206    0.75937    1.000
    O143     O        0.16536    0.25795    0.72561    1.000
    Fe27     Fe       0.56872    0.84770    0.19946    1.000
    Fe28     Fe       0.79938    0.75794    0.20311    1.000
    P27      P        0.73011    0.92774    0.25163    1.000
    P28      P        0.42686    0.95580    0.13949    1.000
    O144     O        0.79405    0.88235    0.21807    1.000
    O145     O        0.71567    0.86947    0.29412    1.000
    O146     O        0.64348    0.94314    0.22609    1.000
    O147     O        0.76878    0.01431    0.26743    1.000
    O148     O        0.47477    0.92966    0.18318    1.000
    O149     O        0.48578    0.01422    0.11082    1.000
    O150     O        0.34634    0.01189    0.15371    1.000
    O151     O        0.39397    0.87859    0.11183    1.000
    O152     O        0.58023    0.73927    0.31973    1.000
    O153     O        0.50912    0.83206    0.25937    1.000
    O154     O        0.66536    0.75795    0.22561    1.000
    Fe29     Fe       0.43128    0.65230    0.19946    1.000
    Fe30     Fe       0.20062    0.74206    0.20311    1.000
    P29      P        0.26989    0.57226    0.25163    1.000
    P30      P        0.57314    0.54420    0.13949    1.000
    O155     O        0.20595    0.61765    0.21807    1.000
    O156     O        0.28433    0.63053    0.29412    1.000
    O157     O        0.35652    0.55686    0.22609    1.000
    O158     O        0.23122    0.48569    0.26743    1.000
    O159     O        0.52523    0.57034    0.18318    1.000
    O160     O        0.51422    0.48578    0.11082    1.000
    O161     O        0.65366    0.48811    0.15371    1.000
    O162     O        0.60603    0.62141    0.11183    1.000
    O163     O        0.41977    0.76073    0.31973    1.000
    O164     O        0.49088    0.66794    0.25937    1.000
    O165     O        0.33464    0.74205    0.22561    1.000
    Fe31     Fe       0.93128    0.15230    0.69946    1.000
    Fe32     Fe       0.70062    0.24206    0.70311    1.000
    P31      P        0.76989    0.07226    0.75163    1.000
    P32      P        0.07314    0.04420    0.63949    1.000
    O166     O        0.70595    0.11765    0.71807    1.000
    O167     O        0.78433    0.13053    0.79412    1.000
    O168     O        0.85652    0.05686    0.72609    1.000
    O169     O        0.73122    0.98569    0.76743    1.000
    O170     O        0.02523    0.07034    0.68318    1.000
    O171     O        0.01422    0.98578    0.61082    1.000
    O172     O        0.15366    0.98811    0.65371    1.000
    O173     O        0.10603    0.12141    0.61183    1.000
    O174     O        0.91977    0.26073    0.81973    1.000
    O175     O        0.99088    0.16794    0.75937    1.000
    O176     O        0.83464    0.24205    0.72561    1.000
    P33      P        0.50000    0.75000    0.96119    1.000
    O177     O        0.50000    0.75000    0.07545    1.000
    P34      P        0.00000    0.25000    0.46119    1.000
    O178     O        0.00000    0.25000    0.57545    1.000
    P35      P        0.00000    0.75000    0.21119    1.000
    O179     O        0.00000    0.75000    0.32545    1.000
    P36      P        0.50000    0.25000    0.71119    1.000
    O180     O        0.50000    0.25000    0.82545    1.000
    P37      P        0.50000    0.25000    0.03881    1.000
    O181     O        0.50000    0.25000    0.92455    1.000
    P38      P        0.00000    0.75000    0.53881    1.000
    O182     O        0.00000    0.75000    0.42455    1.000
    P39      P        0.00000    0.25000    0.78881    1.000
    O183     O        0.00000    0.25000    0.67455    1.000
    P40      P        0.50000    0.75000    0.28881    1.000
    O184     O        0.50000    0.75000    0.17455    1.000
