# CIF file generated by openbabel 3.1.0, see https://openbabel.org
data_I
_chemical_name_common 'image0'
_cell_length_a 15.258
_cell_length_b 21.333
_cell_length_c 29.267
_cell_angle_alpha 90
_cell_angle_beta 90
_cell_angle_gamma 90
_space_group_name_H-M_alt 'P 1'
_space_group_name_Hall 'P 1'
loop_
    _symmetry_equiv_pos_as_xyz
    x,y,z
loop_
    _atom_site_label
    _atom_site_type_symbol
    _atom_site_fract_x
    _atom_site_fract_y
    _atom_site_fract_z
    _atom_site_occupancy
    Mn1      Mn       0.36145    0.27305    0.23334    1.000
    Mn2      Mn       0.12909    0.27696    0.17966    1.000
    Mn3      Mn       0.17252    0.50936    0.15734    1.000
    Mn4      Mn       0.33289    0.50327    0.25526    1.000
    C1       C        0.19440    0.20090    0.26550    1.000
    C2       C        0.16960    0.14820    0.29810    1.000
    C3       C        0.23490    0.12140    0.32470    1.000
    H1       H        0.29220    0.13630    0.32380    1.000
    C4       C        0.21190    0.07210    0.35240    1.000
    H2       H        0.25510    0.05320    0.37000    1.000
    C5       C        0.06630    0.07630    0.32870    1.000
    H3       H        0.00930    0.06100    0.33020    1.000
    C6       C        0.08630    0.12420    0.30050    1.000
    H4       H        0.04260    0.14140    0.28230    1.000
    C7       C        0.10990    0.99820    0.38730    1.000
    H5       H        0.06480    0.97160    0.37410    1.000
    H6       H        0.16150    0.97270    0.39270    1.000
    C8       C        0.07890    0.02490    0.43020    1.000
    H7       H        0.02140    0.04330    0.42570    1.000
    H8       H        0.11860    0.05780    0.44000    1.000
    C9       C        0.07380    0.97320    0.46760    1.000
    H9       H        0.03590    0.93940    0.45770    1.000
    H10      H        0.13160    0.95630    0.47360    1.000
    C10      C        0.03650    0.00450    0.51080    1.000
    H11      H        0.07340    0.03940    0.51970    1.000
    H12      H        0.97810    0.02040    0.50470    1.000
    C11      C        0.09940    0.95230    0.57950    1.000
    H13      H        0.14850    0.97780    0.57690    1.000
    C12      C        0.09360    0.91000    0.61400    1.000
    H14      H        0.13700    0.90900    0.63630    1.000
    C13      C        0.02590    0.86960    0.61630    1.000
    C14      C        0.96110    0.87310    0.58350    1.000
    H15      H        0.91400    0.84540    0.58390    1.000
    C15      C        0.96770    0.91840    0.55020    1.000
    H16      H        0.92420    0.92140    0.52810    1.000
    C16      C        0.01770    0.82060    0.65440    1.000
    C17      C        0.29360    0.20250    0.14470    1.000
    C18      C        0.32820    0.15880    0.10720    1.000
    C19      C        0.40530    0.12840    0.11350    1.000
    H17      H        0.43980    0.13600    0.13910    1.000
    C20      C        0.43100    0.08590    0.08050    1.000
    H18      H        0.48080    0.06180    0.08590    1.000
    C21      C        0.31750    0.10980    0.03540    1.000
    H19      H        0.28700    0.10440    0.00820    1.000
    C22      C        0.28790    0.15090    0.06770    1.000
    H20      H        0.23770    0.17420    0.06160    1.000
    C23      C        0.42190    0.02980    0.00960    1.000
    H21      H        0.47500    0.01020    0.02090    1.000
    H22      H        0.37790    0.99740    0.00550    1.000
    C24      C        0.43890    0.06040    0.96700    1.000
    H23      H        0.48590    0.09050    0.97110    1.000
    H24      H        0.38690    0.08310    0.95750    1.000
    C25      C        0.46520    0.01220    0.92910    1.000
    H25      H        0.48180    0.03500    0.90170    1.000
    H26      H        0.51600    0.98880    0.93930    1.000
    C26      C        0.39860    0.97050    0.91830    1.000
    H27      H        0.34490    0.99350    0.91290    1.000
    H28      H        0.38890    0.94250    0.94390    1.000
    C27      C        0.47320    0.88310    0.87860    1.000
    H29      H        0.49650    0.87270    0.90700    1.000
    C28      C        0.49470    0.84720    0.84180    1.000
    H30      H        0.53040    0.81220    0.84550    1.000
    C29      C        0.46340    0.86290    0.79920    1.000
    C30      C        0.41030    0.91520    0.79600    1.000
    H31      H        0.38860    0.92700    0.76760    1.000
    C31      C        0.38860    0.95050    0.83430    1.000
    H32      H        0.35310    0.98580    0.83190    1.000
    C32      C        0.48820    0.82450    0.75800    1.000
    C33      C        0.15690    0.38580    0.09960    1.000
    C34      C        0.15970    0.35970    0.05090    1.000
    C35      C        0.14460    0.29740    0.04300    1.000
    H33      H        0.12990    0.27070    0.06690    1.000
    C36      C        0.15170    0.27500    0.99870    1.000
    H34      H        0.14160    0.23270    0.99300    1.000
    C37      C        0.18500    0.37410    0.97050    1.000
    H35      H        0.19570    0.40040    0.94580    1.000
    C38      C        0.18160    0.39820    0.01420    1.000
    H36      H        0.19400    0.44040    0.01910    1.000
    C39      C        0.18340    0.28540    0.91840    1.000
    H37      H        0.21850    0.24760    0.92060    1.000
    H38      H        0.21410    0.31480    0.89880    1.000
    C40      C        0.09470    0.26950    0.89730    1.000
    H39      H        0.06170    0.30770    0.89240    1.000
    H40      H        0.06170    0.24320    0.91820    1.000
    C41      C        0.10640    0.23510    0.85150    1.000
    H41      H        0.13370    0.26350    0.82990    1.000
    H42      H        0.14590    0.20000    0.85600    1.000
    C42      C        0.02220    0.21110    0.83130    1.000
    H43      H        0.03510    0.18050    0.80780    1.000
    H44      H        0.98790    0.19060    0.85490    1.000
    C43      C        0.99220    0.28210    0.76950    1.000
    H45      H        0.03720    0.26180    0.75400    1.000
    C44      C        0.94850    0.33130    0.74870    1.000
    H46      H        0.96360    0.34410    0.71940    1.000
    C45      C        0.88170    0.36140    0.77240    1.000
    C46      C        0.86000    0.34030    0.81680    1.000
    H47      H        0.81550    0.35930    0.83350    1.000
    C47      C        0.90680    0.29100    0.83440    1.000
    H48      H        0.89320    0.27630    0.86350    1.000
    C48      C        0.83290    0.41550    0.75020    1.000
    C49      C        0.33620    0.37940    0.31430    1.000
    C50      C        0.32180    0.35370    0.36160    1.000
    C51      C        0.30970    0.29150    0.36960    1.000
    H49      H        0.31040    0.26360    0.34520    1.000
    C52      C        0.29660    0.26930    0.41250    1.000
    H50      H        0.28890    0.22660    0.41740    1.000
    C53      C        0.30680    0.37050    0.44080    1.000
    H51      H        0.30580    0.39750    0.46570    1.000
    C54      C        0.32040    0.39500    0.39880    1.000
    H52      H        0.32860    0.43790    0.39470    1.000
    C55      C        0.27880    0.28520    0.49640    1.000
    H53      H        0.24590    0.31580    0.51390    1.000
    H54      H        0.24480    0.24680    0.49500    1.000
    C56      C        0.36610    0.27240    0.51980    1.000
    H55      H        0.40000    0.24280    0.50190    1.000
    H56      H        0.39940    0.31100    0.52230    1.000
    C57      C        0.34850    0.24610    0.56650    1.000
    H57      H        0.31950    0.27780    0.58480    1.000
    H58      H        0.30870    0.21080    0.56360    1.000
    C58      C        0.42930    0.22490    0.59100    1.000
    H59      H        0.46410    0.19930    0.57040    1.000
    H60      H        0.41230    0.19890    0.61670    1.000
    C59      C        0.46710    0.30450    0.64840    1.000
    H61      H        0.41930    0.29040    0.66520    1.000
    C60      C        0.51760    0.35150    0.66540    1.000
    H62      H        0.50430    0.37010    0.69330    1.000
    C61      C        0.59020    0.37120    0.63980    1.000
    C62      C        0.60450    0.34470    0.59800    1.000
    H63      H        0.65060    0.35910    0.58020    1.000
    C63      C        0.55320    0.29790    0.58190    1.000
    H64      H        0.56440    0.27960    0.55370    1.000
    C64      C        0.65140    0.42040    0.66020    1.000
    O1       O        0.14070    0.21230    0.23410    1.000
    O2       O        0.26540    0.22610    0.27261    1.000
    O3       O        0.05930    0.83230    0.69062    1.000
    O4       O        0.97100    0.77540    0.64630    1.000
    O5       O        0.21930    0.22650    0.13676    1.000
    O6       O        0.33950    0.20990    0.17780    1.000
    O7       O        0.54260    0.78120    0.76495    1.000
    O8       O        0.45140    0.83890    0.72145    1.000
    O9       O        0.18440    0.43990    0.10388    1.000
    O10      O        0.12150    0.35230    0.12956    1.000
    O11      O        0.85320    0.42670    0.70940    1.000
    O12      O        0.77960    0.44440    0.77540    1.000
    O13      O        0.36930    0.34440    0.28562    1.000
    O14      O        0.31290    0.43560    0.30780    1.000
    O15      O        0.71060    0.44190    0.63509    1.000
    O16      O        0.63700    0.43450    0.70140    1.000
    N1       N        0.24590    0.33460    0.20560    1.000
    N2       N        0.24700    0.38934    0.20620    1.000
    N3       N        0.24810    0.44460    0.20720    1.000
    N4       N        0.13150    0.05060    0.35510    1.000
    N5       N        0.03300    0.95680    0.54910    1.000
    N6       N        0.38980    0.07800    0.04340    1.000
    N7       N        0.42110    0.93170    0.87570    1.000
    N8       N        0.17270    0.31290    0.96390    1.000
    N9       N        0.97050    0.26370    0.81120    1.000
    N10      N        0.29470    0.30990    0.44810    1.000
    N11      N        0.48470    0.27820    0.60810    1.000
    Mn5      Mn       0.63855    0.72695    0.73334    1.000
    Mn6      Mn       0.87091    0.72304    0.67966    1.000
    Mn7      Mn       0.82748    0.49064    0.65734    1.000
    Mn8      Mn       0.66711    0.49673    0.75526    1.000
    C65      C        0.80560    0.79910    0.76550    1.000
    C66      C        0.83040    0.85180    0.79810    1.000
    C67      C        0.76510    0.87860    0.82470    1.000
    H65      H        0.70780    0.86370    0.82380    1.000
    C68      C        0.78810    0.92790    0.85240    1.000
    H66      H        0.74490    0.94680    0.87000    1.000
    C69      C        0.93370    0.92370    0.82870    1.000
    H67      H        0.99070    0.93900    0.83020    1.000
    C70      C        0.91370    0.87580    0.80050    1.000
    H68      H        0.95740    0.85860    0.78230    1.000
    C71      C        0.89010    0.00180    0.88730    1.000
    H69      H        0.93520    0.02840    0.87410    1.000
    H70      H        0.83850    0.02730    0.89270    1.000
    C72      C        0.92110    0.97510    0.93020    1.000
    H71      H        0.97860    0.95670    0.92570    1.000
    H72      H        0.88140    0.94220    0.94000    1.000
    C73      C        0.92620    0.02680    0.96760    1.000
    H73      H        0.96410    0.06060    0.95770    1.000
    H74      H        0.86840    0.04370    0.97360    1.000
    C74      C        0.96350    0.99550    0.01080    1.000
    H75      H        0.92660    0.96060    0.01970    1.000
    H76      H        0.02190    0.97960    0.00470    1.000
    C75      C        0.90060    0.04770    0.07950    1.000
    H77      H        0.85150    0.02220    0.07690    1.000
    C76      C        0.90640    0.09000    0.11400    1.000
    H78      H        0.86300    0.09100    0.13630    1.000
    C77      C        0.97410    0.13040    0.11630    1.000
    C78      C        0.03890    0.12690    0.08350    1.000
    H79      H        0.08600    0.15460    0.08390    1.000
    C79      C        0.03230    0.08160    0.05020    1.000
    H80      H        0.07580    0.07860    0.02810    1.000
    C80      C        0.98230    0.17940    0.15440    1.000
    C81      C        0.70640    0.79750    0.64470    1.000
    C82      C        0.67180    0.84120    0.60720    1.000
    C83      C        0.59470    0.87160    0.61350    1.000
    H81      H        0.56020    0.86400    0.63910    1.000
    C84      C        0.56900    0.91410    0.58050    1.000
    H82      H        0.51920    0.93820    0.58590    1.000
    C85      C        0.68250    0.89020    0.53540    1.000
    H83      H        0.71300    0.89560    0.50820    1.000
    C86      C        0.71210    0.84910    0.56770    1.000
    H84      H        0.76230    0.82580    0.56160    1.000
    C87      C        0.57810    0.97020    0.50960    1.000
    H85      H        0.52500    0.98980    0.52090    1.000
    H86      H        0.62210    0.00260    0.50550    1.000
    C88      C        0.56110    0.93960    0.46700    1.000
    H87      H        0.51410    0.90950    0.47110    1.000
    H88      H        0.61310    0.91690    0.45750    1.000
    C89      C        0.53480    0.98780    0.42910    1.000
    H89      H        0.51820    0.96500    0.40170    1.000
    H90      H        0.48400    0.01120    0.43930    1.000
    C90      C        0.60140    0.02950    0.41830    1.000
    H91      H        0.65510    0.00650    0.41290    1.000
    H92      H        0.61110    0.05750    0.44390    1.000
    C91      C        0.52680    0.11690    0.37860    1.000
    H93      H        0.50350    0.12730    0.40700    1.000
    C92      C        0.50530    0.15280    0.34180    1.000
    H94      H        0.46960    0.18780    0.34550    1.000
    C93      C        0.53660    0.13710    0.29920    1.000
    C94      C        0.58970    0.08480    0.29600    1.000
    H95      H        0.61140    0.07300    0.26760    1.000
    C95      C        0.61140    0.04950    0.33430    1.000
    H96      H        0.64690    0.01420    0.33190    1.000
    C96      C        0.51180    0.17550    0.25800    1.000
    C97      C        0.84310    0.61420    0.59960    1.000
    C98      C        0.84030    0.64030    0.55090    1.000
    C99      C        0.85540    0.70260    0.54300    1.000
    H97      H        0.87010    0.72930    0.56690    1.000
    C100     C        0.84830    0.72500    0.49870    1.000
    H98      H        0.85840    0.76730    0.49300    1.000
    C101     C        0.81500    0.62590    0.47050    1.000
    H99      H        0.80430    0.59960    0.44580    1.000
    C102     C        0.81840    0.60180    0.51420    1.000
    H100     H        0.80600    0.55960    0.51910    1.000
    C103     C        0.81660    0.71460    0.41840    1.000
    H101     H        0.78150    0.75240    0.42060    1.000
    H102     H        0.78590    0.68520    0.39880    1.000
    C104     C        0.90530    0.73050    0.39730    1.000
    H103     H        0.93830    0.69230    0.39240    1.000
    H104     H        0.93830    0.75680    0.41820    1.000
    C105     C        0.89360    0.76490    0.35150    1.000
    H105     H        0.86630    0.73650    0.32990    1.000
    H106     H        0.85410    0.80000    0.35600    1.000
    C106     C        0.97780    0.78890    0.33130    1.000
    H107     H        0.96490    0.81950    0.30780    1.000
    H108     H        0.01210    0.80940    0.35490    1.000
    C107     C        0.00780    0.71790    0.26950    1.000
    H109     H        0.96280    0.73820    0.25400    1.000
    C108     C        0.05150    0.66870    0.24870    1.000
    H110     H        0.03640    0.65590    0.21940    1.000
    C109     C        0.11830    0.63860    0.27240    1.000
    C110     C        0.14000    0.65970    0.31680    1.000
    H111     H        0.18450    0.64070    0.33350    1.000
    C111     C        0.09320    0.70900    0.33440    1.000
    H112     H        0.10680    0.72370    0.36350    1.000
    C112     C        0.16710    0.58450    0.25020    1.000
    C113     C        0.66380    0.62060    0.81430    1.000
    C114     C        0.67820    0.64630    0.86160    1.000
    C115     C        0.69030    0.70850    0.86960    1.000
    H113     H        0.68960    0.73640    0.84520    1.000
    C116     C        0.70340    0.73070    0.91250    1.000
    H114     H        0.71110    0.77340    0.91740    1.000
    C117     C        0.69320    0.62950    0.94080    1.000
    H115     H        0.69420    0.60250    0.96570    1.000
    C118     C        0.67960    0.60500    0.89880    1.000
    H116     H        0.67140    0.56210    0.89470    1.000
    C119     C        0.72120    0.71480    0.99640    1.000
    H117     H        0.75410    0.68420    0.01390    1.000
    H118     H        0.75520    0.75320    0.99500    1.000
    C120     C        0.63390    0.72760    0.01980    1.000
    H119     H        0.60000    0.75720    0.00190    1.000
    H120     H        0.60060    0.68900    0.02230    1.000
    C121     C        0.65150    0.75390    0.06650    1.000
    H121     H        0.68050    0.72220    0.08480    1.000
    H122     H        0.69130    0.78920    0.06360    1.000
    C122     C        0.57070    0.77510    0.09100    1.000
    H123     H        0.53590    0.80070    0.07040    1.000
    H124     H        0.58770    0.80110    0.11670    1.000
    C123     C        0.53290    0.69550    0.14840    1.000
    H125     H        0.58070    0.70960    0.16520    1.000
    C124     C        0.48240    0.64850    0.16540    1.000
    H126     H        0.49570    0.62990    0.19330    1.000
    C125     C        0.40980    0.62880    0.13980    1.000
    C126     C        0.39550    0.65530    0.09800    1.000
    H127     H        0.34940    0.64090    0.08020    1.000
    C127     C        0.44680    0.70210    0.08190    1.000
    H128     H        0.43560    0.72040    0.05370    1.000
    C128     C        0.34860    0.57960    0.16020    1.000
    O17      O        0.85930    0.78770    0.73410    1.000
    O18      O        0.73460    0.77390    0.77261    1.000
    O19      O        0.94070    0.16770    0.19062    1.000
    O20      O        0.02900    0.22460    0.14630    1.000
    O21      O        0.78070    0.77350    0.63676    1.000
    O22      O        0.66050    0.79010    0.67780    1.000
    O23      O        0.45740    0.21880    0.26495    1.000
    O24      O        0.54860    0.16110    0.22145    1.000
    O25      O        0.81560    0.56010    0.60388    1.000
    O26      O        0.87850    0.64770    0.62956    1.000
    O27      O        0.14680    0.57330    0.20940    1.000
    O28      O        0.22040    0.55560    0.27540    1.000
    O29      O        0.63070    0.65560    0.78562    1.000
    O30      O        0.68710    0.56440    0.80780    1.000
    O31      O        0.28940    0.55810    0.13509    1.000
    O32      O        0.36300    0.56550    0.20140    1.000
    N12      N        0.75410    0.66540    0.70560    1.000
    N13      N        0.75300    0.61066    0.70620    1.000
    N14      N        0.75190    0.55540    0.70720    1.000
    N15      N        0.86850    0.94940    0.85510    1.000
    N16      N        0.96700    0.04320    0.04910    1.000
    N17      N        0.61020    0.92200    0.54340    1.000
    N18      N        0.57890    0.06830    0.37570    1.000
    N19      N        0.82730    0.68710    0.46390    1.000
    N20      N        0.02950    0.73630    0.31120    1.000
    N21      N        0.70530    0.69010    0.94810    1.000
    N22      N        0.51530    0.72180    0.10810    1.000
    Mn9      Mn       0.86145    0.22695    0.23334    1.000
    Mn10     Mn       0.62909    0.22304    0.17966    1.000
    Mn11     Mn       0.67252    0.99064    0.15734    1.000
    Mn12     Mn       0.83289    0.99673    0.25526    1.000
    C129     C        0.69440    0.29910    0.26550    1.000
    C130     C        0.66960    0.35180    0.29810    1.000
    C131     C        0.73490    0.37860    0.32470    1.000
    H129     H        0.79220    0.36370    0.32380    1.000
    C132     C        0.71190    0.42790    0.35240    1.000
    H130     H        0.75510    0.44680    0.37000    1.000
    C133     C        0.56630    0.42370    0.32870    1.000
    H131     H        0.50930    0.43900    0.33020    1.000
    C134     C        0.58630    0.37580    0.30050    1.000
    H132     H        0.54260    0.35860    0.28230    1.000
    C135     C        0.60990    0.50180    0.38730    1.000
    H133     H        0.56480    0.52840    0.37410    1.000
    H134     H        0.66150    0.52730    0.39270    1.000
    C136     C        0.57890    0.47510    0.43020    1.000
    H135     H        0.52140    0.45670    0.42570    1.000
    H136     H        0.61860    0.44220    0.44000    1.000
    C137     C        0.57380    0.52680    0.46760    1.000
    H137     H        0.53590    0.56060    0.45770    1.000
    H138     H        0.63160    0.54370    0.47360    1.000
    C138     C        0.53650    0.49550    0.51080    1.000
    H139     H        0.57340    0.46060    0.51970    1.000
    H140     H        0.47810    0.47960    0.50470    1.000
    C139     C        0.59940    0.54770    0.57950    1.000
    H141     H        0.64850    0.52220    0.57690    1.000
    C140     C        0.59360    0.59000    0.61400    1.000
    H142     H        0.63700    0.59100    0.63630    1.000
    C141     C        0.52590    0.63040    0.61630    1.000
    C142     C        0.46110    0.62690    0.58350    1.000
    H143     H        0.41400    0.65460    0.58390    1.000
    C143     C        0.46770    0.58160    0.55020    1.000
    H144     H        0.42420    0.57860    0.52810    1.000
    C144     C        0.51770    0.67940    0.65440    1.000
    C145     C        0.79360    0.29750    0.14470    1.000
    C146     C        0.82820    0.34120    0.10720    1.000
    C147     C        0.90530    0.37160    0.11350    1.000
    H145     H        0.93980    0.36400    0.13910    1.000
    C148     C        0.93100    0.41410    0.08050    1.000
    H146     H        0.98080    0.43820    0.08590    1.000
    C149     C        0.81750    0.39020    0.03540    1.000
    H147     H        0.78700    0.39560    0.00820    1.000
    C150     C        0.78790    0.34910    0.06770    1.000
    H148     H        0.73770    0.32580    0.06160    1.000
    C151     C        0.92190    0.47020    0.00960    1.000
    H149     H        0.97500    0.48980    0.02090    1.000
    H150     H        0.87790    0.50260    0.00550    1.000
    C152     C        0.93890    0.43960    0.96700    1.000
    H151     H        0.98590    0.40950    0.97110    1.000
    H152     H        0.88690    0.41690    0.95750    1.000
    C153     C        0.96520    0.48780    0.92910    1.000
    H153     H        0.98180    0.46500    0.90170    1.000
    H154     H        0.01600    0.51120    0.93930    1.000
    C154     C        0.89860    0.52950    0.91830    1.000
    H155     H        0.84490    0.50650    0.91290    1.000
    H156     H        0.88890    0.55750    0.94390    1.000
    C155     C        0.97320    0.61690    0.87860    1.000
    H157     H        0.99650    0.62730    0.90700    1.000
    C156     C        0.99470    0.65280    0.84180    1.000
    H158     H        0.03040    0.68780    0.84550    1.000
    C157     C        0.96340    0.63710    0.79920    1.000
    C158     C        0.91030    0.58480    0.79600    1.000
    H159     H        0.88860    0.57300    0.76760    1.000
    C159     C        0.88860    0.54950    0.83430    1.000
    H160     H        0.85310    0.51420    0.83190    1.000
    C160     C        0.98820    0.67550    0.75800    1.000
    C161     C        0.65690    0.11420    0.09960    1.000
    C162     C        0.65970    0.14030    0.05090    1.000
    C163     C        0.64460    0.20260    0.04300    1.000
    H161     H        0.62990    0.22930    0.06690    1.000
    C164     C        0.65170    0.22500    0.99870    1.000
    H162     H        0.64160    0.26730    0.99300    1.000
    C165     C        0.68500    0.12590    0.97050    1.000
    H163     H        0.69570    0.09960    0.94580    1.000
    C166     C        0.68160    0.10180    0.01420    1.000
    H164     H        0.69400    0.05960    0.01910    1.000
    C167     C        0.68340    0.21460    0.91840    1.000
    H165     H        0.71850    0.25240    0.92060    1.000
    H166     H        0.71410    0.18520    0.89880    1.000
    C168     C        0.59470    0.23050    0.89730    1.000
    H167     H        0.56170    0.19230    0.89240    1.000
    H168     H        0.56170    0.25680    0.91820    1.000
    C169     C        0.60640    0.26490    0.85150    1.000
    H169     H        0.63370    0.23650    0.82990    1.000
    H170     H        0.64590    0.30000    0.85600    1.000
    C170     C        0.52220    0.28890    0.83130    1.000
    H171     H        0.53510    0.31950    0.80780    1.000
    H172     H        0.48790    0.30940    0.85490    1.000
    C171     C        0.49220    0.21790    0.76950    1.000
    H173     H        0.53720    0.23820    0.75400    1.000
    C172     C        0.44850    0.16870    0.74870    1.000
    H174     H        0.46360    0.15590    0.71940    1.000
    C173     C        0.38170    0.13860    0.77240    1.000
    C174     C        0.36000    0.15970    0.81680    1.000
    H175     H        0.31550    0.14070    0.83350    1.000
    C175     C        0.40680    0.20900    0.83440    1.000
    H176     H        0.39320    0.22370    0.86350    1.000
    C176     C        0.33290    0.08450    0.75020    1.000
    C177     C        0.83620    0.12060    0.31430    1.000
    C178     C        0.82180    0.14630    0.36160    1.000
    C179     C        0.80970    0.20850    0.36960    1.000
    H177     H        0.81040    0.23640    0.34520    1.000
    C180     C        0.79660    0.23070    0.41250    1.000
    H178     H        0.78890    0.27340    0.41740    1.000
    C181     C        0.80680    0.12950    0.44080    1.000
    H179     H        0.80580    0.10250    0.46570    1.000
    C182     C        0.82040    0.10500    0.39880    1.000
    H180     H        0.82860    0.06210    0.39470    1.000
    C183     C        0.77880    0.21480    0.49640    1.000
    H181     H        0.74590    0.18420    0.51390    1.000
    H182     H        0.74480    0.25320    0.49500    1.000
    C184     C        0.86610    0.22760    0.51980    1.000
    H183     H        0.90000    0.25720    0.50190    1.000
    H184     H        0.89940    0.18900    0.52230    1.000
    C185     C        0.84850    0.25390    0.56650    1.000
    H185     H        0.81950    0.22220    0.58480    1.000
    H186     H        0.80870    0.28920    0.56360    1.000
    C186     C        0.92930    0.27510    0.59100    1.000
    H187     H        0.96410    0.30070    0.57040    1.000
    H188     H        0.91230    0.30110    0.61670    1.000
    C187     C        0.96710    0.19550    0.64840    1.000
    H189     H        0.91930    0.20960    0.66520    1.000
    C188     C        0.01760    0.14850    0.66540    1.000
    H190     H        0.00430    0.12990    0.69330    1.000
    C189     C        0.09020    0.12880    0.63980    1.000
    C190     C        0.10450    0.15530    0.59800    1.000
    H191     H        0.15060    0.14090    0.58020    1.000
    C191     C        0.05320    0.20210    0.58190    1.000
    H192     H        0.06440    0.22040    0.55370    1.000
    C192     C        0.15140    0.07960    0.66020    1.000
    O33      O        0.64070    0.28770    0.23410    1.000
    O34      O        0.76540    0.27390    0.27261    1.000
    O35      O        0.55930    0.66770    0.69062    1.000
    O36      O        0.47100    0.72460    0.64630    1.000
    O37      O        0.71930    0.27350    0.13676    1.000
    O38      O        0.83950    0.29010    0.17780    1.000
    O39      O        0.04260    0.71880    0.76495    1.000
    O40      O        0.95140    0.66110    0.72145    1.000
    O41      O        0.68440    0.06010    0.10388    1.000
    O42      O        0.62150    0.14770    0.12956    1.000
    O43      O        0.35320    0.07330    0.70940    1.000
    O44      O        0.27960    0.05560    0.77540    1.000
    O45      O        0.86930    0.15560    0.28562    1.000
    O46      O        0.81290    0.06440    0.30780    1.000
    O47      O        0.21060    0.05810    0.63509    1.000
    O48      O        0.13700    0.06550    0.70140    1.000
    N23      N        0.74590    0.16540    0.20560    1.000
    N24      N        0.74700    0.11066    0.20620    1.000
    N25      N        0.74810    0.05540    0.20720    1.000
    N26      N        0.63150    0.44940    0.35510    1.000
    N27      N        0.53300    0.54320    0.54910    1.000
    N28      N        0.88980    0.42200    0.04340    1.000
    N29      N        0.92110    0.56830    0.87570    1.000
    N30      N        0.67270    0.18710    0.96390    1.000
    N31      N        0.47050    0.23630    0.81120    1.000
    N32      N        0.79470    0.19010    0.44810    1.000
    N33      N        0.98470    0.22180    0.60810    1.000
    Mn13     Mn       0.13855    0.77305    0.73334    1.000
    Mn14     Mn       0.37091    0.77696    0.67966    1.000
    Mn15     Mn       0.32748    0.00936    0.65734    1.000
    Mn16     Mn       0.16711    0.00327    0.75526    1.000
    C193     C        0.30560    0.70090    0.76550    1.000
    C194     C        0.33040    0.64820    0.79810    1.000
    C195     C        0.26510    0.62140    0.82470    1.000
    H193     H        0.20780    0.63630    0.82380    1.000
    C196     C        0.28810    0.57210    0.85240    1.000
    H194     H        0.24490    0.55320    0.87000    1.000
    C197     C        0.43370    0.57630    0.82870    1.000
    H195     H        0.49070    0.56100    0.83020    1.000
    C198     C        0.41370    0.62420    0.80050    1.000
    H196     H        0.45740    0.64140    0.78230    1.000
    C199     C        0.39010    0.49820    0.88730    1.000
    H197     H        0.43520    0.47160    0.87410    1.000
    H198     H        0.33850    0.47270    0.89270    1.000
    C200     C        0.42110    0.52490    0.93020    1.000
    H199     H        0.47860    0.54330    0.92570    1.000
    H200     H        0.38140    0.55780    0.94000    1.000
    C201     C        0.42620    0.47320    0.96760    1.000
    H201     H        0.46410    0.43940    0.95770    1.000
    H202     H        0.36840    0.45630    0.97360    1.000
    C202     C        0.46350    0.50450    0.01080    1.000
    H203     H        0.42660    0.53940    0.01970    1.000
    H204     H        0.52190    0.52040    0.00470    1.000
    C203     C        0.40060    0.45230    0.07950    1.000
    H205     H        0.35150    0.47780    0.07690    1.000
    C204     C        0.40640    0.41000    0.11400    1.000
    H206     H        0.36300    0.40900    0.13630    1.000
    C205     C        0.47410    0.36960    0.11630    1.000
    C206     C        0.53890    0.37310    0.08350    1.000
    H207     H        0.58600    0.34540    0.08390    1.000
    C207     C        0.53230    0.41840    0.05020    1.000
    H208     H        0.57580    0.42140    0.02810    1.000
    C208     C        0.48230    0.32060    0.15440    1.000
    C209     C        0.20640    0.70250    0.64470    1.000
    C210     C        0.17180    0.65880    0.60720    1.000
    C211     C        0.09470    0.62840    0.61350    1.000
    H209     H        0.06020    0.63600    0.63910    1.000
    C212     C        0.06900    0.58590    0.58050    1.000
    H210     H        0.01920    0.56180    0.58590    1.000
    C213     C        0.18250    0.60980    0.53540    1.000
    H211     H        0.21300    0.60440    0.50820    1.000
    C214     C        0.21210    0.65090    0.56770    1.000
    H212     H        0.26230    0.67420    0.56160    1.000
    C215     C        0.07810    0.52980    0.50960    1.000
    H213     H        0.02500    0.51020    0.52090    1.000
    H214     H        0.12210    0.49740    0.50550    1.000
    C216     C        0.06110    0.56040    0.46700    1.000
    H215     H        0.01410    0.59050    0.47110    1.000
    H216     H        0.11310    0.58310    0.45750    1.000
    C217     C        0.03480    0.51220    0.42910    1.000
    H217     H        0.01820    0.53500    0.40170    1.000
    H218     H        0.98400    0.48880    0.43930    1.000
    C218     C        0.10140    0.47050    0.41830    1.000
    H219     H        0.15510    0.49350    0.41290    1.000
    H220     H        0.11110    0.44250    0.44390    1.000
    C219     C        0.02680    0.38310    0.37860    1.000
    H221     H        0.00350    0.37270    0.40700    1.000
    C220     C        0.00530    0.34720    0.34180    1.000
    H222     H        0.96960    0.31220    0.34550    1.000
    C221     C        0.03660    0.36290    0.29920    1.000
    C222     C        0.08970    0.41520    0.29600    1.000
    H223     H        0.11140    0.42700    0.26760    1.000
    C223     C        0.11140    0.45050    0.33430    1.000
    H224     H        0.14690    0.48580    0.33190    1.000
    C224     C        0.01180    0.32450    0.25800    1.000
    C225     C        0.34310    0.88580    0.59960    1.000
    C226     C        0.34030    0.85970    0.55090    1.000
    C227     C        0.35540    0.79740    0.54300    1.000
    H225     H        0.37010    0.77070    0.56690    1.000
    C228     C        0.34830    0.77500    0.49870    1.000
    H226     H        0.35840    0.73270    0.49300    1.000
    C229     C        0.31500    0.87410    0.47050    1.000
    H227     H        0.30430    0.90040    0.44580    1.000
    C230     C        0.31840    0.89820    0.51420    1.000
    H228     H        0.30600    0.94040    0.51910    1.000
    C231     C        0.31660    0.78540    0.41840    1.000
    H229     H        0.28150    0.74760    0.42060    1.000
    H230     H        0.28590    0.81480    0.39880    1.000
    C232     C        0.40530    0.76950    0.39730    1.000
    H231     H        0.43830    0.80770    0.39240    1.000
    H232     H        0.43830    0.74320    0.41820    1.000
    C233     C        0.39360    0.73510    0.35150    1.000
    H233     H        0.36630    0.76350    0.32990    1.000
    H234     H        0.35410    0.70000    0.35600    1.000
    C234     C        0.47780    0.71110    0.33130    1.000
    H235     H        0.46490    0.68050    0.30780    1.000
    H236     H        0.51210    0.69060    0.35490    1.000
    C235     C        0.50780    0.78210    0.26950    1.000
    H237     H        0.46280    0.76180    0.25400    1.000
    C236     C        0.55150    0.83130    0.24870    1.000
    H238     H        0.53640    0.84410    0.21940    1.000
    C237     C        0.61830    0.86140    0.27240    1.000
    C238     C        0.64000    0.84030    0.31680    1.000
    H239     H        0.68450    0.85930    0.33350    1.000
    C239     C        0.59320    0.79100    0.33440    1.000
    H240     H        0.60680    0.77630    0.36350    1.000
    C240     C        0.66710    0.91550    0.25020    1.000
    C241     C        0.16380    0.87940    0.81430    1.000
    C242     C        0.17820    0.85370    0.86160    1.000
    C243     C        0.19030    0.79150    0.86960    1.000
    H241     H        0.18960    0.76360    0.84520    1.000
    C244     C        0.20340    0.76930    0.91250    1.000
    H242     H        0.21110    0.72660    0.91740    1.000
    C245     C        0.19320    0.87050    0.94080    1.000
    H243     H        0.19420    0.89750    0.96570    1.000
    C246     C        0.17960    0.89500    0.89880    1.000
    H244     H        0.17140    0.93790    0.89470    1.000
    C247     C        0.22120    0.78520    0.99640    1.000
    H245     H        0.25410    0.81580    0.01390    1.000
    H246     H        0.25520    0.74680    0.99500    1.000
    C248     C        0.13390    0.77240    0.01980    1.000
    H247     H        0.10000    0.74280    0.00190    1.000
    H248     H        0.10060    0.81100    0.02230    1.000
    C249     C        0.15150    0.74610    0.06650    1.000
    H249     H        0.18050    0.77780    0.08480    1.000
    H250     H        0.19130    0.71080    0.06360    1.000
    C250     C        0.07070    0.72490    0.09100    1.000
    H251     H        0.03590    0.69930    0.07040    1.000
    H252     H        0.08770    0.69890    0.11670    1.000
    C251     C        0.03290    0.80450    0.14840    1.000
    H253     H        0.08070    0.79040    0.16520    1.000
    C252     C        0.98240    0.85150    0.16540    1.000
    H254     H        0.99570    0.87010    0.19330    1.000
    C253     C        0.90980    0.87120    0.13980    1.000
    C254     C        0.89550    0.84470    0.09800    1.000
    H255     H        0.84940    0.85910    0.08020    1.000
    C255     C        0.94680    0.79790    0.08190    1.000
    H256     H        0.93560    0.77960    0.05370    1.000
    C256     C        0.84860    0.92040    0.16020    1.000
    O49      O        0.35930    0.71230    0.73410    1.000
    O50      O        0.23460    0.72610    0.77261    1.000
    O51      O        0.44070    0.33230    0.19062    1.000
    O52      O        0.52900    0.27540    0.14630    1.000
    O53      O        0.28070    0.72650    0.63676    1.000
    O54      O        0.16050    0.70990    0.67780    1.000
    O55      O        0.95740    0.28120    0.26495    1.000
    O56      O        0.04860    0.33890    0.22145    1.000
    O57      O        0.31560    0.93990    0.60388    1.000
    O58      O        0.37850    0.85230    0.62956    1.000
    O59      O        0.64680    0.92670    0.20940    1.000
    O60      O        0.72040    0.94440    0.27540    1.000
    O61      O        0.13070    0.84440    0.78562    1.000
    O62      O        0.18710    0.93560    0.80780    1.000
    O63      O        0.78940    0.94190    0.13509    1.000
    O64      O        0.86300    0.93450    0.20140    1.000
    N34      N        0.25410    0.83460    0.70560    1.000
    N35      N        0.25300    0.88934    0.70620    1.000
    N36      N        0.25190    0.94460    0.70720    1.000
    N37      N        0.36850    0.55060    0.85510    1.000
    N38      N        0.46700    0.45680    0.04910    1.000
    N39      N        0.11020    0.57800    0.54340    1.000
    N40      N        0.07890    0.43170    0.37570    1.000
    N41      N        0.32730    0.81290    0.46390    1.000
    N42      N        0.52950    0.76370    0.31120    1.000
    N43      N        0.20530    0.80990    0.94810    1.000
    N44      N        0.01530    0.77820    0.10810    1.000
