# CIF file generated by openbabel 3.1.0, see https://openbabel.org
data_I
_chemical_name_common 'image0'
_cell_length_a 13.9429
_cell_length_b 13.9429
_cell_length_c 13.9429
_cell_angle_alpha 90
_cell_angle_beta 90
_cell_angle_gamma 90
_space_group_name_H-M_alt 'P 1'
_space_group_name_Hall 'P 1'
loop_
    _symmetry_equiv_pos_as_xyz
    x,y,z
loop_
    _atom_site_label
    _atom_site_type_symbol
    _atom_site_fract_x
    _atom_site_fract_y
    _atom_site_fract_z
    _atom_site_occupancy
    Zn1      Zn       0.12500    0.12500    0.62500    1.000
    Zn2      Zn       0.62500    0.12500    0.12500    1.000
    Zn3      Zn       0.12500    0.62500    0.12500    1.000
    Zn4      Zn       0.62500    0.62500    0.62500    1.000
    Zn5      Zn       0.87500    0.37500    0.87500    1.000
    Zn6      Zn       0.87500    0.87500    0.37500    1.000
    Zn7      Zn       0.37500    0.37500    0.37500    1.000
    Zn8      Zn       0.37500    0.87500    0.87500    1.000
    N1       N        0.18800    0.01000    0.68800    1.000
    C1       C        0.25600    0.02100    0.75600    1.000
    N2       N        0.18800    0.51000    0.18800    1.000
    C2       C        0.25600    0.52100    0.25600    1.000
    N3       N        0.68800    0.51000    0.68800    1.000
    C3       C        0.75600    0.52100    0.75600    1.000
    N4       N        0.56200    0.24000    0.18800    1.000
    C4       C        0.49400    0.22900    0.25600    1.000
    N5       N        0.06200    0.24000    0.68800    1.000
    C5       C        0.99400    0.22900    0.75600    1.000
    N6       N        0.06200    0.51000    0.06200    1.000
    C6       C        0.99400    0.52100    0.99400    1.000
    N7       N        0.06200    0.01000    0.56200    1.000
    C7       C        0.99400    0.02100    0.49400    1.000
    N8       N        0.56200    0.51000    0.56200    1.000
    C8       C        0.49400    0.52100    0.49400    1.000
    N9       N        0.56200    0.01000    0.06200    1.000
    C9       C        0.49400    0.02100    0.99400    1.000
    N10      N        0.68800    0.74000    0.56200    1.000
    C10      C        0.75600    0.72900    0.49400    1.000
    N11      N        0.68800    0.24000    0.06200    1.000
    C11      C        0.75600    0.22900    0.99400    1.000
    N12      N        0.68800    0.18800    0.01000    1.000
    C12      C        0.75600    0.25600    0.02100    1.000
    N13      N        0.68800    0.68800    0.51000    1.000
    C13      C        0.75600    0.75600    0.52100    1.000
    N14      N        0.18800    0.56200    0.24000    1.000
    C14      C        0.25600    0.49400    0.22900    1.000
    N15      N        0.18800    0.06200    0.74000    1.000
    C15      C        0.25600    0.99400    0.72900    1.000
    N16      N        0.06200    0.06200    0.51000    1.000
    C16      C        0.99400    0.99400    0.52100    1.000
    N17      N        0.06200    0.56200    0.01000    1.000
    C17      C        0.99400    0.49400    0.02100    1.000
    N18      N        0.56200    0.06200    0.01000    1.000
    C18      C        0.49400    0.99400    0.02100    1.000
    N19      N        0.56200    0.56200    0.51000    1.000
    C19      C        0.49400    0.49400    0.52100    1.000
    N20      N        0.56200    0.68800    0.74000    1.000
    C20      C        0.49400    0.75600    0.72900    1.000
    N21      N        0.06200    0.68800    0.24000    1.000
    C21      C        0.99400    0.75600    0.22900    1.000
    N22      N        0.01000    0.68800    0.18800    1.000
    C22      C        0.02100    0.75600    0.25600    1.000
    N23      N        0.51000    0.68800    0.68800    1.000
    C23      C        0.52100    0.75600    0.75600    1.000
    N24      N        0.24000    0.18800    0.56200    1.000
    C24      C        0.22900    0.25600    0.49400    1.000
    N25      N        0.24000    0.68800    0.06200    1.000
    C25      C        0.22900    0.75600    0.99400    1.000
    N26      N        0.51000    0.06200    0.06200    1.000
    C26      C        0.52100    0.99400    0.99400    1.000
    N27      N        0.51000    0.56200    0.56200    1.000
    C27      C        0.52100    0.49400    0.49400    1.000
    N28      N        0.01000    0.06200    0.56200    1.000
    C28      C        0.02100    0.99400    0.49400    1.000
    N29      N        0.01000    0.56200    0.06200    1.000
    C29      C        0.02100    0.49400    0.99400    1.000
    N30      N        0.74000    0.56200    0.68800    1.000
    C30      C        0.72900    0.49400    0.75600    1.000
    N31      N        0.74000    0.06200    0.18800    1.000
    C31      C        0.72900    0.99400    0.25600    1.000
    N32      N        0.76000    0.43800    0.81200    1.000
    C32      C        0.77100    0.50600    0.74400    1.000
    N33      N        0.76000    0.93800    0.31200    1.000
    C33      C        0.77100    0.00600    0.24400    1.000
    N34      N        0.99000    0.81200    0.31200    1.000
    C34      C        0.97900    0.74400    0.24400    1.000
    N35      N        0.49000    0.81200    0.81200    1.000
    C35      C        0.47900    0.74400    0.74400    1.000
    N36      N        0.26000    0.31200    0.43800    1.000
    C36      C        0.27100    0.24400    0.50600    1.000
    N37      N        0.26000    0.81200    0.93800    1.000
    C37      C        0.27100    0.74400    0.00600    1.000
    N38      N        0.49000    0.93800    0.93800    1.000
    C38      C        0.47900    0.00600    0.00600    1.000
    N39      N        0.49000    0.43800    0.43800    1.000
    C39      C        0.47900    0.50600    0.50600    1.000
    N40      N        0.99000    0.93800    0.43800    1.000
    C40      C        0.97900    0.00600    0.50600    1.000
    N41      N        0.99000    0.43800    0.93800    1.000
    C41      C        0.97900    0.50600    0.00600    1.000
    N42      N        0.93800    0.93800    0.49000    1.000
    C42      C        0.00600    0.00600    0.47900    1.000
    N43      N        0.93800    0.43800    0.99000    1.000
    C43      C        0.00600    0.50600    0.97900    1.000
    N44      N        0.43800    0.93800    0.99000    1.000
    C44      C        0.50600    0.00600    0.97900    1.000
    N45      N        0.43800    0.43800    0.49000    1.000
    C45      C        0.50600    0.50600    0.47900    1.000
    N46      N        0.31200    0.43800    0.26000    1.000
    C46      C        0.24400    0.50600    0.27100    1.000
    N47      N        0.31200    0.93800    0.76000    1.000
    C47      C        0.24400    0.00600    0.77100    1.000
    N48      N        0.81200    0.31200    0.99000    1.000
    C48      C        0.74400    0.24400    0.97900    1.000
    N49      N        0.81200    0.81200    0.49000    1.000
    C49      C        0.74400    0.74400    0.47900    1.000
    N50      N        0.43800    0.81200    0.76000    1.000
    C50      C        0.50600    0.74400    0.77100    1.000
    N51      N        0.93800    0.81200    0.26000    1.000
    C51      C        0.00600    0.74400    0.27100    1.000
    N52      N        0.43800    0.26000    0.31200    1.000
    C52      C        0.50600    0.27100    0.24400    1.000
    N53      N        0.93800    0.26000    0.81200    1.000
    C53      C        0.00600    0.27100    0.74400    1.000
    N54      N        0.93800    0.49000    0.93800    1.000
    C54      C        0.00600    0.47900    0.00600    1.000
    N55      N        0.93800    0.99000    0.43800    1.000
    C55      C        0.00600    0.97900    0.50600    1.000
    N56      N        0.43800    0.49000    0.43800    1.000
    C56      C        0.50600    0.47900    0.50600    1.000
    N57      N        0.43800    0.99000    0.93800    1.000
    C57      C        0.50600    0.97900    0.00600    1.000
    N58      N        0.81200    0.76000    0.43800    1.000
    C58      C        0.74400    0.77100    0.50600    1.000
    N59      N        0.81200    0.26000    0.93800    1.000
    C59      C        0.74400    0.27100    0.00600    1.000
    N60      N        0.31200    0.99000    0.81200    1.000
    C60      C        0.24400    0.97900    0.74400    1.000
    N61      N        0.31200    0.49000    0.31200    1.000
    C61      C        0.24400    0.47900    0.24400    1.000
    N62      N        0.81200    0.49000    0.81200    1.000
    C62      C        0.74400    0.47900    0.74400    1.000
    N63      N        0.81200    0.99000    0.31200    1.000
    C63      C        0.74400    0.97900    0.24400    1.000
    N64      N        0.43800    0.76000    0.81200    1.000
    C64      C        0.50600    0.77100    0.74400    1.000
    N65      N        0.93800    0.76000    0.31200    1.000
    C65      C        0.00600    0.77100    0.24400    1.000
    N66      N        0.31200    0.26000    0.43800    1.000
    C66      C        0.24400    0.27100    0.50600    1.000
    N67      N        0.31200    0.76000    0.93800    1.000
    C67      C        0.24400    0.77100    0.00600    1.000
    N68      N        0.31200    0.81200    0.99000    1.000
    C68      C        0.24400    0.74400    0.97900    1.000
    N69      N        0.31200    0.31200    0.49000    1.000
    C69      C        0.24400    0.24400    0.47900    1.000
    N70      N        0.81200    0.43800    0.76000    1.000
    C70      C        0.74400    0.50600    0.77100    1.000
    N71      N        0.81200    0.93800    0.26000    1.000
    C71      C        0.74400    0.00600    0.27100    1.000
    N72      N        0.43800    0.31200    0.26000    1.000
    C72      C        0.50600    0.24400    0.27100    1.000
    N73      N        0.93800    0.31200    0.76000    1.000
    C73      C        0.00600    0.24400    0.77100    1.000
    N74      N        0.99000    0.31200    0.81200    1.000
    C74      C        0.97900    0.24400    0.74400    1.000
    N75      N        0.49000    0.31200    0.31200    1.000
    C75      C        0.47900    0.24400    0.24400    1.000
    N76      N        0.76000    0.81200    0.43800    1.000
    C76      C        0.77100    0.74400    0.50600    1.000
    N77      N        0.76000    0.31200    0.93800    1.000
    C77      C        0.77100    0.24400    0.00600    1.000
    N78      N        0.26000    0.43800    0.31200    1.000
    C78      C        0.27100    0.50600    0.24400    1.000
    N79      N        0.26000    0.93800    0.81200    1.000
    C79      C        0.27100    0.00600    0.74400    1.000
    N80      N        0.24000    0.56200    0.18800    1.000
    C80      C        0.22900    0.49400    0.25600    1.000
    N81      N        0.24000    0.06200    0.68800    1.000
    C81      C        0.22900    0.99400    0.75600    1.000
    N82      N        0.01000    0.18800    0.68800    1.000
    C82      C        0.02100    0.25600    0.75600    1.000
    N83      N        0.51000    0.18800    0.18800    1.000
    C83      C        0.52100    0.25600    0.25600    1.000
    N84      N        0.74000    0.68800    0.56200    1.000
    C84      C        0.72900    0.75600    0.49400    1.000
    N85      N        0.74000    0.18800    0.06200    1.000
    C85      C        0.72900    0.25600    0.99400    1.000
    N86      N        0.68800    0.56200    0.74000    1.000
    C86      C        0.75600    0.49400    0.72900    1.000
    N87      N        0.68800    0.06200    0.24000    1.000
    C87      C        0.75600    0.99400    0.22900    1.000
    N88      N        0.18800    0.68800    0.01000    1.000
    C88      C        0.25600    0.75600    0.02100    1.000
    N89      N        0.18800    0.18800    0.51000    1.000
    C89      C        0.25600    0.25600    0.52100    1.000
    N90      N        0.56200    0.18800    0.24000    1.000
    C90      C        0.49400    0.25600    0.22900    1.000
    N91      N        0.06200    0.18800    0.74000    1.000
    C91      C        0.99400    0.25600    0.72900    1.000
    N92      N        0.56200    0.74000    0.68800    1.000
    C92      C        0.49400    0.72900    0.75600    1.000
    N93      N        0.06200    0.74000    0.18800    1.000
    C93      C        0.99400    0.72900    0.25600    1.000
    N94      N        0.18800    0.24000    0.56200    1.000
    C94      C        0.25600    0.22900    0.49400    1.000
    N95      N        0.18800    0.74000    0.06200    1.000
    C95      C        0.25600    0.72900    0.99400    1.000
    N96      N        0.68800    0.01000    0.18800    1.000
    C96      C        0.75600    0.02100    0.25600    1.000
    N97      N        0.03400    0.21600    0.68300    1.000
    N98      N        0.98100    0.26900    0.61900    1.000
    N99      N        0.95900    0.29100    0.64200    1.000
    H1       H        0.98260    0.26740    0.58680    1.000
    N100     N        0.03400    0.71600    0.18300    1.000
    N101     N        0.98100    0.76900    0.11900    1.000
    N102     N        0.95900    0.79100    0.14200    1.000
    H2       H        0.98260    0.76740    0.08680    1.000
    N103     N        0.53400    0.21600    0.18300    1.000
    N104     N        0.48100    0.26900    0.11900    1.000
    N105     N        0.45900    0.29100    0.14200    1.000
    H3       H        0.48260    0.26740    0.08680    1.000
    N106     N        0.71600    0.03400    0.18300    1.000
    N107     N        0.76900    0.98100    0.11900    1.000
    N108     N        0.79100    0.95900    0.14200    1.000
    H4       H        0.76740    0.98260    0.08680    1.000
    N109     N        0.71600    0.53400    0.68300    1.000
    N110     N        0.76900    0.48100    0.61900    1.000
    N111     N        0.79100    0.45900    0.64200    1.000
    H5       H        0.76740    0.48260    0.58680    1.000
    N112     N        0.21600    0.71600    0.06700    1.000
    N113     N        0.26900    0.76900    0.13100    1.000
    N114     N        0.29100    0.79100    0.10800    1.000
    H6       H        0.26740    0.76740    0.16320    1.000
    N115     N        0.21600    0.21600    0.56700    1.000
    N116     N        0.26900    0.26900    0.63100    1.000
    N117     N        0.29100    0.29100    0.60800    1.000
    H7       H        0.26740    0.26740    0.66320    1.000
    N118     N        0.71600    0.71600    0.56700    1.000
    N119     N        0.76900    0.76900    0.63100    1.000
    N120     N        0.79100    0.79100    0.60800    1.000
    H8       H        0.76740    0.76740    0.66320    1.000
    N121     N        0.53400    0.53400    0.56700    1.000
    N122     N        0.48100    0.48100    0.63100    1.000
    N123     N        0.45900    0.45900    0.60800    1.000
    H9       H        0.48260    0.48260    0.66320    1.000
    N124     N        0.53400    0.03400    0.06700    1.000
    N125     N        0.48100    0.98100    0.13100    1.000
    N126     N        0.45900    0.95900    0.10800    1.000
    H10      H        0.48260    0.98260    0.16320    1.000
    N127     N        0.03400    0.53400    0.06700    1.000
    N128     N        0.98100    0.48100    0.13100    1.000
    N129     N        0.95900    0.45900    0.10800    1.000
    H11      H        0.98260    0.48260    0.16320    1.000
    N130     N        0.03400    0.03400    0.56700    1.000
    N131     N        0.98100    0.98100    0.63100    1.000
    N132     N        0.95900    0.95900    0.60800    1.000
    H12      H        0.98260    0.98260    0.66320    1.000
    N133     N        0.68300    0.03400    0.21600    1.000
    N134     N        0.61900    0.98100    0.26900    1.000
    N135     N        0.64200    0.95900    0.29100    1.000
    H13      H        0.58680    0.98260    0.26740    1.000
    N136     N        0.68300    0.53400    0.71600    1.000
    N137     N        0.61900    0.48100    0.76900    1.000
    N138     N        0.64200    0.45900    0.79100    1.000
    H14      H        0.58680    0.48260    0.76740    1.000
    N139     N        0.18300    0.03400    0.71600    1.000
    N140     N        0.11900    0.98100    0.76900    1.000
    N141     N        0.14200    0.95900    0.79100    1.000
    H15      H        0.08680    0.98260    0.76740    1.000
    N142     N        0.18300    0.71600    0.03400    1.000
    N143     N        0.11900    0.76900    0.98100    1.000
    N144     N        0.14200    0.79100    0.95900    1.000
    H16      H        0.08680    0.76740    0.98260    1.000
    N145     N        0.18300    0.21600    0.53400    1.000
    N146     N        0.11900    0.26900    0.48100    1.000
    N147     N        0.14200    0.29100    0.45900    1.000
    H17      H        0.08680    0.26740    0.48260    1.000
    N148     N        0.06700    0.21600    0.71600    1.000
    N149     N        0.13100    0.26900    0.76900    1.000
    N150     N        0.10800    0.29100    0.79100    1.000
    H18      H        0.16320    0.26740    0.76740    1.000
    N151     N        0.56700    0.21600    0.21600    1.000
    N152     N        0.63100    0.26900    0.26900    1.000
    N153     N        0.60800    0.29100    0.29100    1.000
    H19      H        0.66320    0.26740    0.26740    1.000
    N154     N        0.56700    0.71600    0.71600    1.000
    N155     N        0.63100    0.76900    0.76900    1.000
    N156     N        0.60800    0.79100    0.79100    1.000
    H20      H        0.66320    0.76740    0.76740    1.000
    N157     N        0.56700    0.53400    0.53400    1.000
    N158     N        0.63100    0.48100    0.48100    1.000
    N159     N        0.60800    0.45900    0.45900    1.000
    H21      H        0.66320    0.48260    0.48260    1.000
    N160     N        0.56700    0.03400    0.03400    1.000
    N161     N        0.63100    0.98100    0.98100    1.000
    N162     N        0.60800    0.95900    0.95900    1.000
    H22      H        0.66320    0.98260    0.98260    1.000
    N163     N        0.06700    0.53400    0.03400    1.000
    N164     N        0.13100    0.48100    0.98100    1.000
    N165     N        0.10800    0.45900    0.95900    1.000
    H23      H        0.16320    0.48260    0.98260    1.000
    N166     N        0.06700    0.03400    0.53400    1.000
    N167     N        0.13100    0.98100    0.48100    1.000
    N168     N        0.10800    0.95900    0.45900    1.000
    H24      H        0.16320    0.98260    0.48260    1.000
    N169     N        0.21600    0.68300    0.03400    1.000
    N170     N        0.26900    0.61900    0.98100    1.000
    N171     N        0.29100    0.64200    0.95900    1.000
    H25      H        0.26740    0.58680    0.98260    1.000
    N172     N        0.21600    0.18300    0.53400    1.000
    N173     N        0.26900    0.11900    0.48100    1.000
    N174     N        0.29100    0.14200    0.45900    1.000
    H26      H        0.26740    0.08680    0.48260    1.000
    N175     N        0.71600    0.18300    0.03400    1.000
    N176     N        0.76900    0.11900    0.98100    1.000
    N177     N        0.79100    0.14200    0.95900    1.000
    H27      H        0.76740    0.08680    0.98260    1.000
    N178     N        0.03400    0.18300    0.71600    1.000
    N179     N        0.98100    0.11900    0.76900    1.000
    N180     N        0.95900    0.14200    0.79100    1.000
    H28      H        0.98260    0.08680    0.76740    1.000
    N181     N        0.53400    0.18300    0.21600    1.000
    N182     N        0.48100    0.11900    0.26900    1.000
    N183     N        0.45900    0.14200    0.29100    1.000
    H29      H        0.48260    0.08680    0.26740    1.000
    N184     N        0.71600    0.06700    0.21600    1.000
    N185     N        0.76900    0.13100    0.26900    1.000
    N186     N        0.79100    0.10800    0.29100    1.000
    H30      H        0.76740    0.16320    0.26740    1.000
    N187     N        0.71600    0.56700    0.71600    1.000
    N188     N        0.76900    0.63100    0.76900    1.000
    N189     N        0.79100    0.60800    0.79100    1.000
    H31      H        0.76740    0.66320    0.76740    1.000
    N190     N        0.53400    0.56700    0.53400    1.000
    N191     N        0.48100    0.63100    0.48100    1.000
    N192     N        0.45900    0.60800    0.45900    1.000
    H32      H        0.48260    0.66320    0.48260    1.000
    N193     N        0.53400    0.06700    0.03400    1.000
    N194     N        0.48100    0.13100    0.98100    1.000
    N195     N        0.45900    0.10800    0.95900    1.000
    H33      H        0.48260    0.16320    0.98260    1.000
    N196     N        0.03400    0.56700    0.03400    1.000
    N197     N        0.98100    0.63100    0.98100    1.000
    N198     N        0.95900    0.60800    0.95900    1.000
    H34      H        0.98260    0.66320    0.98260    1.000
    N199     N        0.03400    0.06700    0.53400    1.000
    N200     N        0.98100    0.13100    0.48100    1.000
    N201     N        0.95900    0.10800    0.45900    1.000
    H35      H        0.98260    0.16320    0.48260    1.000
    N202     N        0.96600    0.28400    0.81700    1.000
    N203     N        0.01900    0.23100    0.88100    1.000
    N204     N        0.04100    0.20900    0.85800    1.000
    H36      H        0.01740    0.23260    0.91320    1.000
    N205     N        0.46600    0.28400    0.31700    1.000
    N206     N        0.51900    0.23100    0.38100    1.000
    N207     N        0.54100    0.20900    0.35800    1.000
    H37      H        0.51740    0.23260    0.41320    1.000
    N208     N        0.78400    0.96600    0.31700    1.000
    N209     N        0.73100    0.01900    0.38100    1.000
    N210     N        0.70900    0.04100    0.35800    1.000
    H38      H        0.73260    0.01740    0.41320    1.000
    N211     N        0.78400    0.46600    0.81700    1.000
    N212     N        0.73100    0.51900    0.88100    1.000
    N213     N        0.70900    0.54100    0.85800    1.000
    H39      H        0.73260    0.51740    0.91320    1.000
    N214     N        0.46600    0.46600    0.43300    1.000
    N215     N        0.51900    0.51900    0.36900    1.000
    N216     N        0.54100    0.54100    0.39200    1.000
    H40      H        0.51740    0.51740    0.33680    1.000
    N217     N        0.46600    0.96600    0.93300    1.000
    N218     N        0.51900    0.01900    0.86900    1.000
    N219     N        0.54100    0.04100    0.89200    1.000
    H41      H        0.51740    0.01740    0.83680    1.000
    N220     N        0.96600    0.46600    0.93300    1.000
    N221     N        0.01900    0.51900    0.86900    1.000
    N222     N        0.04100    0.54100    0.89200    1.000
    H42      H        0.01740    0.51740    0.83680    1.000
    N223     N        0.96600    0.96600    0.43300    1.000
    N224     N        0.01900    0.01900    0.36900    1.000
    N225     N        0.04100    0.04100    0.39200    1.000
    H43      H        0.01740    0.01740    0.33680    1.000
    N226     N        0.28400    0.78400    0.93300    1.000
    N227     N        0.23100    0.73100    0.86900    1.000
    N228     N        0.20900    0.70900    0.89200    1.000
    H44      H        0.23260    0.73260    0.83680    1.000
    N229     N        0.28400    0.28400    0.43300    1.000
    N230     N        0.23100    0.23100    0.36900    1.000
    N231     N        0.20900    0.20900    0.39200    1.000
    H45      H        0.23260    0.23260    0.33680    1.000
    N232     N        0.78400    0.78400    0.43300    1.000
    N233     N        0.73100    0.73100    0.36900    1.000
    N234     N        0.70900    0.70900    0.39200    1.000
    H46      H        0.73260    0.73260    0.33680    1.000
    N235     N        0.78400    0.93300    0.28400    1.000
    N236     N        0.73100    0.86900    0.23100    1.000
    N237     N        0.70900    0.89200    0.20900    1.000
    H47      H        0.73260    0.83680    0.23260    1.000
    N238     N        0.78400    0.43300    0.78400    1.000
    N239     N        0.73100    0.36900    0.73100    1.000
    N240     N        0.70900    0.39200    0.70900    1.000
    H48      H        0.73260    0.33680    0.73260    1.000
    N241     N        0.46600    0.43300    0.46600    1.000
    N242     N        0.51900    0.36900    0.51900    1.000
    N243     N        0.54100    0.39200    0.54100    1.000
    H49      H        0.51740    0.33680    0.51740    1.000
    N244     N        0.46600    0.93300    0.96600    1.000
    N245     N        0.51900    0.86900    0.01900    1.000
    N246     N        0.54100    0.89200    0.04100    1.000
    H50      H        0.51740    0.83680    0.01740    1.000
    N247     N        0.96600    0.43300    0.96600    1.000
    N248     N        0.01900    0.36900    0.01900    1.000
    N249     N        0.04100    0.39200    0.04100    1.000
    H51      H        0.01740    0.33680    0.01740    1.000
    N250     N        0.96600    0.93300    0.46600    1.000
    N251     N        0.01900    0.86900    0.51900    1.000
    N252     N        0.04100    0.89200    0.54100    1.000
    H52      H        0.01740    0.83680    0.51740    1.000
    N253     N        0.96600    0.31700    0.78400    1.000
    N254     N        0.01900    0.38100    0.73100    1.000
    N255     N        0.04100    0.35800    0.70900    1.000
    H53      H        0.01740    0.41320    0.73260    1.000
    N256     N        0.46600    0.31700    0.28400    1.000
    N257     N        0.51900    0.38100    0.23100    1.000
    N258     N        0.54100    0.35800    0.20900    1.000
    H54      H        0.51740    0.41320    0.23260    1.000
    N259     N        0.28400    0.81700    0.96600    1.000
    N260     N        0.23100    0.88100    0.01900    1.000
    N261     N        0.20900    0.85800    0.04100    1.000
    H55      H        0.23260    0.91320    0.01740    1.000
    N262     N        0.28400    0.31700    0.46600    1.000
    N263     N        0.23100    0.38100    0.51900    1.000
    N264     N        0.20900    0.35800    0.54100    1.000
    H56      H        0.23260    0.41320    0.51740    1.000
    N265     N        0.43300    0.46600    0.46600    1.000
    N266     N        0.36900    0.51900    0.51900    1.000
    N267     N        0.39200    0.54100    0.54100    1.000
    H57      H        0.33680    0.51740    0.51740    1.000
    N268     N        0.43300    0.96600    0.96600    1.000
    N269     N        0.36900    0.01900    0.01900    1.000
    N270     N        0.39200    0.04100    0.04100    1.000
    H58      H        0.33680    0.01740    0.01740    1.000
    N271     N        0.93300    0.46600    0.96600    1.000
    N272     N        0.86900    0.51900    0.01900    1.000
    N273     N        0.89200    0.54100    0.04100    1.000
    H59      H        0.83680    0.51740    0.01740    1.000
    N274     N        0.93300    0.96600    0.46600    1.000
    N275     N        0.86900    0.01900    0.51900    1.000
    N276     N        0.89200    0.04100    0.54100    1.000
    H60      H        0.83680    0.01740    0.51740    1.000
    N277     N        0.93300    0.28400    0.78400    1.000
    N278     N        0.86900    0.23100    0.73100    1.000
    N279     N        0.89200    0.20900    0.70900    1.000
    H61      H        0.83680    0.23260    0.73260    1.000
    N280     N        0.43300    0.28400    0.28400    1.000
    N281     N        0.36900    0.23100    0.23100    1.000
    N282     N        0.39200    0.20900    0.20900    1.000
    H62      H        0.33680    0.23260    0.23260    1.000
    N283     N        0.43300    0.78400    0.78400    1.000
    N284     N        0.36900    0.73100    0.73100    1.000
    N285     N        0.39200    0.70900    0.70900    1.000
    H63      H        0.33680    0.73260    0.73260    1.000
    N286     N        0.81700    0.96600    0.28400    1.000
    N287     N        0.88100    0.01900    0.23100    1.000
    N288     N        0.85800    0.04100    0.20900    1.000
    H64      H        0.91320    0.01740    0.23260    1.000
    N289     N        0.81700    0.46600    0.78400    1.000
    N290     N        0.88100    0.51900    0.73100    1.000
    N291     N        0.85800    0.54100    0.70900    1.000
    H65      H        0.91320    0.51740    0.73260    1.000
    N292     N        0.31700    0.78400    0.96600    1.000
    N293     N        0.38100    0.73100    0.01900    1.000
    N294     N        0.35800    0.70900    0.04100    1.000
    H66      H        0.41320    0.73260    0.01740    1.000
    N295     N        0.31700    0.28400    0.46600    1.000
    N296     N        0.38100    0.23100    0.51900    1.000
    N297     N        0.35800    0.20900    0.54100    1.000
    H67      H        0.41320    0.23260    0.51740    1.000
    N298     N        0.96600    0.78400    0.31700    1.000
    N299     N        0.01900    0.73100    0.38100    1.000
    N300     N        0.04100    0.70900    0.35800    1.000
    H68      H        0.01740    0.73260    0.41320    1.000
    N301     N        0.46600    0.78400    0.81700    1.000
    N302     N        0.51900    0.73100    0.88100    1.000
    N303     N        0.54100    0.70900    0.85800    1.000
    H69      H        0.51740    0.73260    0.91320    1.000
    N304     N        0.28400    0.96600    0.81700    1.000
    N305     N        0.23100    0.01900    0.88100    1.000
    N306     N        0.20900    0.04100    0.85800    1.000
    H70      H        0.23260    0.01740    0.91320    1.000
    N307     N        0.28400    0.46600    0.31700    1.000
    N308     N        0.23100    0.51900    0.38100    1.000
    N309     N        0.20900    0.54100    0.35800    1.000
    H71      H        0.23260    0.51740    0.41320    1.000
    N310     N        0.78400    0.28400    0.93300    1.000
    N311     N        0.73100    0.23100    0.86900    1.000
    N312     N        0.70900    0.20900    0.89200    1.000
    H72      H        0.73260    0.23260    0.83680    1.000
    N313     N        0.31700    0.96600    0.78400    1.000
    N314     N        0.38100    0.01900    0.73100    1.000
    N315     N        0.35800    0.04100    0.70900    1.000
    H73      H        0.41320    0.01740    0.73260    1.000
    N316     N        0.31700    0.46600    0.28400    1.000
    N317     N        0.38100    0.51900    0.23100    1.000
    N318     N        0.35800    0.54100    0.20900    1.000
    H74      H        0.41320    0.51740    0.23260    1.000
    N319     N        0.81700    0.28400    0.96600    1.000
    N320     N        0.88100    0.23100    0.01900    1.000
    N321     N        0.85800    0.20900    0.04100    1.000
    H75      H        0.91320    0.23260    0.01740    1.000
    N322     N        0.81700    0.78400    0.46600    1.000
    N323     N        0.88100    0.73100    0.51900    1.000
    N324     N        0.85800    0.70900    0.54100    1.000
    H76      H        0.91320    0.73260    0.51740    1.000
    N325     N        0.93300    0.78400    0.28400    1.000
    N326     N        0.86900    0.73100    0.23100    1.000
    N327     N        0.89200    0.70900    0.20900    1.000
    H77      H        0.83680    0.73260    0.23260    1.000
    N328     N        0.78400    0.31700    0.96600    1.000
    N329     N        0.73100    0.38100    0.01900    1.000
    N330     N        0.70900    0.35800    0.04100    1.000
    H78      H        0.73260    0.41320    0.01740    1.000
    N331     N        0.78400    0.81700    0.46600    1.000
    N332     N        0.73100    0.88100    0.51900    1.000
    N333     N        0.70900    0.85800    0.54100    1.000
    H79      H        0.73260    0.91320    0.51740    1.000
    N334     N        0.96600    0.81700    0.28400    1.000
    N335     N        0.01900    0.88100    0.23100    1.000
    N336     N        0.04100    0.85800    0.20900    1.000
    H80      H        0.01740    0.91320    0.23260    1.000
    N337     N        0.46600    0.81700    0.78400    1.000
    N338     N        0.51900    0.88100    0.73100    1.000
    N339     N        0.54100    0.85800    0.70900    1.000
    H81      H        0.51740    0.91320    0.73260    1.000
    N340     N        0.28400    0.93300    0.78400    1.000
    N341     N        0.23100    0.86900    0.73100    1.000
    N342     N        0.20900    0.89200    0.70900    1.000
    H82      H        0.23260    0.83680    0.73260    1.000
    N343     N        0.28400    0.43300    0.28400    1.000
    N344     N        0.23100    0.36900    0.23100    1.000
    N345     N        0.20900    0.39200    0.20900    1.000
    H83      H        0.23260    0.33680    0.23260    1.000
    N346     N        0.53400    0.71600    0.68300    1.000
    N347     N        0.48100    0.76900    0.61900    1.000
    N348     N        0.45900    0.79100    0.64200    1.000
    H84      H        0.48260    0.76740    0.58680    1.000
    N349     N        0.21600    0.03400    0.68300    1.000
    N350     N        0.26900    0.98100    0.61900    1.000
    N351     N        0.29100    0.95900    0.64200    1.000
    H85      H        0.26740    0.98260    0.58680    1.000
    N352     N        0.21600    0.53400    0.18300    1.000
    N353     N        0.26900    0.48100    0.11900    1.000
    N354     N        0.29100    0.45900    0.14200    1.000
    H86      H        0.26740    0.48260    0.08680    1.000
    N355     N        0.71600    0.21600    0.06700    1.000
    N356     N        0.76900    0.26900    0.13100    1.000
    N357     N        0.79100    0.29100    0.10800    1.000
    H87      H        0.76740    0.26740    0.16320    1.000
    N358     N        0.21600    0.06700    0.71600    1.000
    N359     N        0.26900    0.13100    0.76900    1.000
    N360     N        0.29100    0.10800    0.79100    1.000
    H88      H        0.26740    0.16320    0.76740    1.000
    N361     N        0.21600    0.56700    0.21600    1.000
    N362     N        0.26900    0.63100    0.26900    1.000
    N363     N        0.29100    0.60800    0.29100    1.000
    H89      H        0.26740    0.66320    0.26740    1.000
    N364     N        0.03400    0.68300    0.21600    1.000
    N365     N        0.98100    0.61900    0.26900    1.000
    N366     N        0.95900    0.64200    0.29100    1.000
    H90      H        0.98260    0.58680    0.26740    1.000
    N367     N        0.53400    0.68300    0.71600    1.000
    N368     N        0.48100    0.61900    0.76900    1.000
    N369     N        0.45900    0.64200    0.79100    1.000
    H91      H        0.48260    0.58680    0.76740    1.000
    N370     N        0.71600    0.68300    0.53400    1.000
    N371     N        0.76900    0.61900    0.48100    1.000
    N372     N        0.79100    0.64200    0.45900    1.000
    H92      H        0.76740    0.58680    0.48260    1.000
    N373     N        0.06700    0.71600    0.21600    1.000
    N374     N        0.13100    0.76900    0.26900    1.000
    N375     N        0.10800    0.79100    0.29100    1.000
    H93      H        0.16320    0.76740    0.26740    1.000
    N376     N        0.18300    0.53400    0.21600    1.000
    N377     N        0.11900    0.48100    0.26900    1.000
    N378     N        0.14200    0.45900    0.29100    1.000
    H94      H        0.08680    0.48260    0.26740    1.000
    N379     N        0.68300    0.21600    0.03400    1.000
    N380     N        0.61900    0.26900    0.98100    1.000
    N381     N        0.64200    0.29100    0.95900    1.000
    H95      H        0.58680    0.26740    0.98260    1.000
    N382     N        0.68300    0.71600    0.53400    1.000
    N383     N        0.61900    0.76900    0.48100    1.000
    N384     N        0.64200    0.79100    0.45900    1.000
    H96      H        0.58680    0.76740    0.48260    1.000
    C97      C        0.07600    0.33200    0.67400    1.000
    H97      H        0.08620    0.35810    0.66380    1.000
    C98      C        0.57600    0.33200    0.17400    1.000
    H98      H        0.58620    0.35810    0.16380    1.000
    C99      C        0.57600    0.83200    0.67400    1.000
    H99      H        0.58620    0.85810    0.66380    1.000
    C100     C        0.67400    0.91800    0.17400    1.000
    H100     H        0.66380    0.89190    0.16380    1.000
    C101     C        0.67400    0.41800    0.67400    1.000
    H101     H        0.66380    0.39190    0.66380    1.000
    C102     C        0.17400    0.41800    0.17400    1.000
    H102     H        0.16380    0.39190    0.16380    1.000
    C103     C        0.17400    0.83200    0.07600    1.000
    H103     H        0.16380    0.85810    0.08620    1.000
    C104     C        0.17400    0.33200    0.57600    1.000
    H104     H        0.16380    0.35810    0.58620    1.000
    C105     C        0.67400    0.83200    0.57600    1.000
    H105     H        0.66380    0.85810    0.58620    1.000
    C106     C        0.57600    0.41800    0.57600    1.000
    H106     H        0.58620    0.39190    0.58620    1.000
    C107     C        0.57600    0.91800    0.07600    1.000
    H107     H        0.58620    0.89190    0.08620    1.000
    C108     C        0.07600    0.41800    0.07600    1.000
    H108     H        0.08620    0.39190    0.08620    1.000
    C109     C        0.07600    0.91800    0.57600    1.000
    H109     H        0.08620    0.89190    0.58620    1.000
    C110     C        0.67400    0.07600    0.33200    1.000
    H110     H        0.66380    0.08620    0.35810    1.000
    C111     C        0.67400    0.57600    0.83200    1.000
    H111     H        0.66380    0.58620    0.85810    1.000
    C112     C        0.17400    0.67400    0.91800    1.000
    H112     H        0.16380    0.66380    0.89190    1.000
    C113     C        0.17400    0.17400    0.41800    1.000
    H113     H        0.16380    0.16380    0.39190    1.000
    C114     C        0.07600    0.17400    0.83200    1.000
    H114     H        0.08620    0.16380    0.85810    1.000
    C115     C        0.57600    0.17400    0.33200    1.000
    H115     H        0.58620    0.16380    0.35810    1.000
    C116     C        0.57600    0.67400    0.83200    1.000
    H116     H        0.58620    0.66380    0.85810    1.000
    C117     C        0.57600    0.57600    0.41800    1.000
    H117     H        0.58620    0.58620    0.39190    1.000
    C118     C        0.57600    0.07600    0.91800    1.000
    H118     H        0.58620    0.08620    0.89190    1.000
    C119     C        0.07600    0.57600    0.91800    1.000
    H119     H        0.08620    0.58620    0.89190    1.000
    C120     C        0.07600    0.07600    0.41800    1.000
    H120     H        0.08620    0.08620    0.39190    1.000
    C121     C        0.33200    0.67400    0.07600    1.000
    H121     H        0.35810    0.66380    0.08620    1.000
    C122     C        0.33200    0.17400    0.57600    1.000
    H122     H        0.35810    0.16380    0.58620    1.000
    C123     C        0.83200    0.67400    0.57600    1.000
    H123     H        0.85810    0.66380    0.58620    1.000
    C124     C        0.91800    0.17400    0.67400    1.000
    H124     H        0.89190    0.16380    0.66380    1.000
    C125     C        0.41800    0.17400    0.17400    1.000
    H125     H        0.39190    0.16380    0.16380    1.000
    C126     C        0.83200    0.07600    0.17400    1.000
    H126     H        0.85810    0.08620    0.16380    1.000
    C127     C        0.83200    0.57600    0.67400    1.000
    H127     H        0.85810    0.58620    0.66380    1.000
    C128     C        0.41800    0.57600    0.57600    1.000
    H128     H        0.39190    0.58620    0.58620    1.000
    C129     C        0.41800    0.07600    0.07600    1.000
    H129     H        0.39190    0.08620    0.08620    1.000
    C130     C        0.91800    0.57600    0.07600    1.000
    H130     H        0.89190    0.58620    0.08620    1.000
    C131     C        0.91800    0.07600    0.57600    1.000
    H131     H        0.89190    0.08620    0.58620    1.000
    C132     C        0.08200    0.32600    0.82600    1.000
    H132     H        0.10810    0.33620    0.83620    1.000
    C133     C        0.58200    0.32600    0.32600    1.000
    H133     H        0.60810    0.33620    0.33620    1.000
    C134     C        0.66800    0.92400    0.32600    1.000
    H134     H        0.64190    0.91380    0.33620    1.000
    C135     C        0.66800    0.42400    0.82600    1.000
    H135     H        0.64190    0.41380    0.83620    1.000
    C136     C        0.58200    0.42400    0.42400    1.000
    H136     H        0.60810    0.41380    0.41380    1.000
    C137     C        0.58200    0.92400    0.92400    1.000
    H137     H        0.60810    0.91380    0.91380    1.000
    C138     C        0.08200    0.42400    0.92400    1.000
    H138     H        0.10810    0.41380    0.91380    1.000
    C139     C        0.08200    0.92400    0.42400    1.000
    H139     H        0.10810    0.91380    0.41380    1.000
    C140     C        0.16800    0.82600    0.92400    1.000
    H140     H        0.14190    0.83620    0.91380    1.000
    C141     C        0.16800    0.32600    0.42400    1.000
    H141     H        0.14190    0.33620    0.41380    1.000
    C142     C        0.82600    0.92400    0.16800    1.000
    H142     H        0.83620    0.91380    0.14190    1.000
    C143     C        0.82600    0.42400    0.66800    1.000
    H143     H        0.83620    0.41380    0.64190    1.000
    C144     C        0.42400    0.42400    0.58200    1.000
    H144     H        0.41380    0.41380    0.60810    1.000
    C145     C        0.42400    0.92400    0.08200    1.000
    H145     H        0.41380    0.91380    0.10810    1.000
    C146     C        0.92400    0.42400    0.08200    1.000
    H146     H        0.91380    0.41380    0.10810    1.000
    C147     C        0.92400    0.92400    0.58200    1.000
    H147     H        0.91380    0.91380    0.60810    1.000
    C148     C        0.92400    0.32600    0.66800    1.000
    H148     H        0.91380    0.33620    0.64190    1.000
    C149     C        0.42400    0.32600    0.16800    1.000
    H149     H        0.41380    0.33620    0.14190    1.000
    C150     C        0.32600    0.82600    0.08200    1.000
    H150     H        0.33620    0.83620    0.10810    1.000
    C151     C        0.32600    0.32600    0.58200    1.000
    H151     H        0.33620    0.33620    0.60810    1.000
    C152     C        0.42400    0.58200    0.42400    1.000
    H152     H        0.41380    0.60810    0.41380    1.000
    C153     C        0.42400    0.08200    0.92400    1.000
    H153     H        0.41380    0.10810    0.91380    1.000
    C154     C        0.92400    0.58200    0.92400    1.000
    H154     H        0.91380    0.60810    0.91380    1.000
    C155     C        0.92400    0.08200    0.42400    1.000
    H155     H        0.91380    0.10810    0.41380    1.000
    C156     C        0.92400    0.16800    0.82600    1.000
    H156     H        0.91380    0.14190    0.83620    1.000
    C157     C        0.42400    0.16800    0.32600    1.000
    H157     H        0.41380    0.14190    0.33620    1.000
    C158     C        0.82600    0.08200    0.32600    1.000
    H158     H        0.83620    0.10810    0.33620    1.000
    C159     C        0.82600    0.58200    0.82600    1.000
    H159     H        0.83620    0.60810    0.83620    1.000
    C160     C        0.32600    0.58200    0.32600    1.000
    H160     H        0.33620    0.60810    0.33620    1.000
    C161     C        0.32600    0.66800    0.92400    1.000
    H161     H        0.33620    0.64190    0.91380    1.000
    C162     C        0.32600    0.16800    0.42400    1.000
    H162     H        0.33620    0.14190    0.41380    1.000
    C163     C        0.92400    0.66800    0.32600    1.000
    H163     H        0.91380    0.64190    0.33620    1.000
    C164     C        0.42400    0.66800    0.82600    1.000
    H164     H        0.41380    0.64190    0.83620    1.000
    C165     C        0.32600    0.08200    0.82600    1.000
    H165     H        0.33620    0.10810    0.83620    1.000
    C166     C        0.82600    0.16800    0.92400    1.000
    H166     H        0.83620    0.14190    0.91380    1.000
    C167     C        0.82600    0.66800    0.42400    1.000
    H167     H        0.83620    0.64190    0.41380    1.000
    C168     C        0.32600    0.92400    0.66800    1.000
    H168     H        0.33620    0.91380    0.64190    1.000
    C169     C        0.32600    0.42400    0.16800    1.000
    H169     H        0.33620    0.41380    0.14190    1.000
    C170     C        0.82600    0.32600    0.08200    1.000
    H170     H        0.83620    0.33620    0.10810    1.000
    C171     C        0.82600    0.82600    0.58200    1.000
    H171     H        0.83620    0.83620    0.60810    1.000
    C172     C        0.92400    0.82600    0.16800    1.000
    H172     H        0.91380    0.83620    0.14190    1.000
    C173     C        0.42400    0.82600    0.66800    1.000
    H173     H        0.41380    0.83620    0.64190    1.000
    C174     C        0.66800    0.32600    0.92400    1.000
    H174     H        0.64190    0.33620    0.91380    1.000
    C175     C        0.66800    0.82600    0.42400    1.000
    H175     H        0.64190    0.83620    0.41380    1.000
    C176     C        0.08200    0.82600    0.32600    1.000
    H176     H        0.10810    0.83620    0.33620    1.000
    C177     C        0.58200    0.82600    0.82600    1.000
    H177     H        0.60810    0.83620    0.83620    1.000
    C178     C        0.16800    0.92400    0.82600    1.000
    H178     H        0.14190    0.91380    0.83620    1.000
    C179     C        0.16800    0.42400    0.32600    1.000
    H179     H        0.14190    0.41380    0.33620    1.000
    C180     C        0.91800    0.67400    0.17400    1.000
    H180     H        0.89190    0.66380    0.16380    1.000
    C181     C        0.41800    0.67400    0.67400    1.000
    H181     H        0.39190    0.66380    0.66380    1.000
    C182     C        0.33200    0.07600    0.67400    1.000
    H182     H        0.35810    0.08620    0.66380    1.000
    C183     C        0.33200    0.57600    0.17400    1.000
    H183     H        0.35810    0.58620    0.16380    1.000
    C184     C        0.83200    0.17400    0.07600    1.000
    H184     H        0.85810    0.16380    0.08620    1.000
    C185     C        0.17400    0.07600    0.83200    1.000
    H185     H        0.16380    0.08620    0.85810    1.000
    C186     C        0.17400    0.57600    0.33200    1.000
    H186     H        0.16380    0.58620    0.35810    1.000
    C187     C        0.07600    0.67400    0.33200    1.000
    H187     H        0.08620    0.66380    0.35810    1.000
    C188     C        0.67400    0.17400    0.91800    1.000
    H188     H        0.66380    0.16380    0.89190    1.000
    C189     C        0.67400    0.67400    0.41800    1.000
    H189     H        0.66380    0.66380    0.39190    1.000
    C190     C        0.07600    0.83200    0.17400    1.000
    H190     H        0.08620    0.85810    0.16380    1.000
    C191     C        0.17400    0.91800    0.67400    1.000
    H191     H        0.16380    0.89190    0.66380    1.000
    C192     C        0.67400    0.33200    0.07600    1.000
    H192     H        0.66380    0.35810    0.08620    1.000
    H193     H        0.12500    0.36000    0.62500    1.000
    H194     H        0.62500    0.86000    0.62500    1.000
    H195     H        0.62500    0.89000    0.12500    1.000
    H196     H        0.12500    0.39000    0.12500    1.000
    H197     H        0.12500    0.86000    0.12500    1.000
    H198     H        0.62500    0.39000    0.62500    1.000
    H199     H        0.62500    0.12500    0.36000    1.000
    H200     H        0.62500    0.62500    0.86000    1.000
    H201     H        0.12500    0.62500    0.89000    1.000
    H202     H        0.12500    0.12500    0.39000    1.000
    H203     H        0.12500    0.12500    0.86000    1.000
    H204     H        0.62500    0.62500    0.39000    1.000
    H205     H        0.36000    0.62500    0.12500    1.000
    H206     H        0.86000    0.62500    0.62500    1.000
    H207     H        0.89000    0.12500    0.62500    1.000
    H208     H        0.86000    0.12500    0.12500    1.000
    H209     H        0.39000    0.62500    0.62500    1.000
    H210     H        0.39000    0.12500    0.12500    1.000
    H211     H        0.11000    0.37500    0.87500    1.000
    H212     H        0.64000    0.87500    0.37500    1.000
    H213     H        0.61000    0.37500    0.37500    1.000
    H214     H        0.61000    0.87500    0.87500    1.000
    H215     H        0.14000    0.87500    0.87500    1.000
    H216     H        0.14000    0.37500    0.37500    1.000
    H217     H        0.87500    0.87500    0.14000    1.000
    H218     H        0.37500    0.37500    0.61000    1.000
    H219     H        0.87500    0.37500    0.64000    1.000
    H220     H        0.37500    0.87500    0.11000    1.000
    H221     H        0.37500    0.61000    0.37500    1.000
    H222     H        0.87500    0.14000    0.87500    1.000
    H223     H        0.87500    0.11000    0.37500    1.000
    H224     H        0.87500    0.61000    0.87500    1.000
    H225     H        0.37500    0.64000    0.87500    1.000
    H226     H        0.37500    0.14000    0.37500    1.000
    H227     H        0.87500    0.64000    0.37500    1.000
    H228     H        0.37500    0.11000    0.87500    1.000
    H229     H        0.37500    0.87500    0.64000    1.000
    H230     H        0.37500    0.37500    0.14000    1.000
    H231     H        0.87500    0.37500    0.11000    1.000
    H232     H        0.87500    0.87500    0.61000    1.000
    H233     H        0.64000    0.37500    0.87500    1.000
    H234     H        0.11000    0.87500    0.37500    1.000
    H235     H        0.89000    0.62500    0.12500    1.000
    H236     H        0.36000    0.12500    0.62500    1.000
    H237     H        0.12500    0.62500    0.36000    1.000
    H238     H        0.62500    0.12500    0.89000    1.000
    H239     H        0.12500    0.89000    0.62500    1.000
    H240     H        0.62500    0.36000    0.12500    1.000
