# CIF file generated by openbabel 3.1.0, see https://openbabel.org
data_I
_chemical_name_common 'image0'
_cell_length_a 10
_cell_length_b 10
_cell_length_c 10
_cell_angle_alpha 90
_cell_angle_beta 90
_cell_angle_gamma 90
_space_group_name_H-M_alt 'P 1'
_space_group_name_Hall 'P 1'
loop_
    _symmetry_equiv_pos_as_xyz
    x,y,z
loop_
    _atom_site_label
    _atom_site_type_symbol
    _atom_site_fract_x
    _atom_site_fract_y
    _atom_site_fract_z
    _atom_site_occupancy
    O1       O        0.58270    0.89090    0.63260    1.000
    O2       O        0.65880    0.94130    0.57340    1.000
    C1       C        0.63210    0.90600    0.62900    1.000
    C2       C        0.68120    0.87070    0.66060    1.000
    C3       C        0.74080    0.87740    0.65310    1.000
    H1       H        0.75570    0.90700    0.62380    1.000
    C4       C        0.77850    0.84080    0.68860    1.000
    H2       H        0.81920    0.84540    0.68340    1.000
    C5       C        0.75670    0.79740    0.73160    1.000
    C6       C        0.69720    0.79060    0.73910    1.000
    H3       H        0.68230    0.76100    0.76850    1.000
    C7       C        0.65940    0.82720    0.70370    1.000
    H4       H        0.61870    0.82250    0.70890    1.000
    O3       O        0.41730    0.10910    0.63260    1.000
    O4       O        0.34120    0.05870    0.57340    1.000
    C8       C        0.36790    0.09400    0.62900    1.000
    C9       C        0.31880    0.12930    0.66060    1.000
    C10      C        0.25920    0.12260    0.65310    1.000
    H5       H        0.24430    0.09300    0.62380    1.000
    C11      C        0.22150    0.15920    0.68860    1.000
    H6       H        0.18080    0.15460    0.68340    1.000
    C12      C        0.24330    0.20260    0.73160    1.000
    C13      C        0.30280    0.20940    0.73910    1.000
    H7       H        0.31770    0.23900    0.76850    1.000
    C14      C        0.34060    0.17280    0.70370    1.000
    H8       H        0.38130    0.17750    0.70890    1.000
    O5       O        0.10910    0.58270    0.13260    1.000
    O6       O        0.05870    0.65880    0.07340    1.000
    C15      C        0.09400    0.63210    0.12900    1.000
    C16      C        0.12930    0.68120    0.16060    1.000
    C17      C        0.12260    0.74080    0.15310    1.000
    H9       H        0.09300    0.75570    0.12380    1.000
    C18      C        0.15920    0.77850    0.18860    1.000
    H10      H        0.15460    0.81920    0.18340    1.000
    C19      C        0.20260    0.75670    0.23160    1.000
    C20      C        0.20940    0.69720    0.23910    1.000
    H11      H        0.23900    0.68230    0.26850    1.000
    C21      C        0.17280    0.65940    0.20370    1.000
    H12      H        0.17750    0.61870    0.20890    1.000
    O7       O        0.89090    0.41730    0.13260    1.000
    O8       O        0.94130    0.34120    0.07340    1.000
    C22      C        0.90600    0.36790    0.12900    1.000
    C23      C        0.87070    0.31880    0.16060    1.000
    C24      C        0.87740    0.25920    0.15310    1.000
    H13      H        0.90700    0.24430    0.12380    1.000
    C25      C        0.84080    0.22150    0.18860    1.000
    H14      H        0.84540    0.18080    0.18340    1.000
    C26      C        0.79740    0.24330    0.23160    1.000
    C27      C        0.79060    0.30280    0.23910    1.000
    H15      H        0.76100    0.31770    0.26850    1.000
    C28      C        0.82720    0.34060    0.20370    1.000
    H16      H        0.82250    0.38130    0.20890    1.000
    O9       O        0.41730    0.89090    0.36740    1.000
    O10      O        0.34120    0.94130    0.42660    1.000
    C29      C        0.36790    0.90600    0.37100    1.000
    C30      C        0.31880    0.87070    0.33940    1.000
    C31      C        0.25920    0.87740    0.34690    1.000
    H17      H        0.24430    0.90700    0.37620    1.000
    C32      C        0.22150    0.84080    0.31140    1.000
    H18      H        0.18080    0.84540    0.31660    1.000
    C33      C        0.24330    0.79740    0.26840    1.000
    C34      C        0.30280    0.79060    0.26090    1.000
    H19      H        0.31770    0.76100    0.23150    1.000
    C35      C        0.34060    0.82720    0.29630    1.000
    H20      H        0.38130    0.82250    0.29110    1.000
    O11      O        0.58270    0.10910    0.36740    1.000
    O12      O        0.65880    0.05870    0.42660    1.000
    C36      C        0.63210    0.09400    0.37100    1.000
    C37      C        0.68120    0.12930    0.33940    1.000
    C38      C        0.74080    0.12260    0.34690    1.000
    H21      H        0.75570    0.09300    0.37620    1.000
    C39      C        0.77850    0.15920    0.31140    1.000
    H22      H        0.81920    0.15460    0.31660    1.000
    C40      C        0.75670    0.20260    0.26840    1.000
    C41      C        0.69720    0.20940    0.26090    1.000
    H23      H        0.68230    0.23900    0.23150    1.000
    C42      C        0.65940    0.17280    0.29630    1.000
    H24      H        0.61870    0.17750    0.29110    1.000
    O13      O        0.89090    0.58270    0.86740    1.000
    O14      O        0.94130    0.65880    0.92660    1.000
    C43      C        0.90600    0.63210    0.87100    1.000
    C44      C        0.87070    0.68120    0.83940    1.000
    C45      C        0.87740    0.74080    0.84690    1.000
    H25      H        0.90700    0.75570    0.87620    1.000
    C46      C        0.84080    0.77850    0.81140    1.000
    H26      H        0.84540    0.81920    0.81660    1.000
    C47      C        0.79740    0.75670    0.76840    1.000
    C48      C        0.79060    0.69720    0.76090    1.000
    H27      H        0.76100    0.68230    0.73150    1.000
    C49      C        0.82720    0.65940    0.79630    1.000
    H28      H        0.82250    0.61870    0.79110    1.000
    O15      O        0.10910    0.41730    0.86740    1.000
    O16      O        0.05870    0.34120    0.92660    1.000
    C50      C        0.09400    0.36790    0.87100    1.000
    C51      C        0.12930    0.31880    0.83940    1.000
    C52      C        0.12260    0.25920    0.84690    1.000
    H29      H        0.09300    0.24430    0.87620    1.000
    C53      C        0.15920    0.22150    0.81140    1.000
    H30      H        0.15460    0.18080    0.81660    1.000
    C54      C        0.20260    0.24330    0.76840    1.000
    C55      C        0.20940    0.30280    0.76090    1.000
    H31      H        0.23900    0.31770    0.73150    1.000
    C56      C        0.17280    0.34060    0.79630    1.000
    H32      H        0.17750    0.38130    0.79110    1.000
    O17      O        0.41730    0.10910    0.36740    1.000
    O18      O        0.34120    0.05870    0.42660    1.000
    C57      C        0.36790    0.09400    0.37100    1.000
    C58      C        0.31880    0.12930    0.33940    1.000
    C59      C        0.25920    0.12260    0.34690    1.000
    H33      H        0.24430    0.09300    0.37620    1.000
    C60      C        0.22150    0.15920    0.31140    1.000
    H34      H        0.18080    0.15460    0.31660    1.000
    C61      C        0.24330    0.20260    0.26840    1.000
    C62      C        0.30280    0.20940    0.26090    1.000
    H35      H        0.31770    0.23900    0.23150    1.000
    C63      C        0.34060    0.17280    0.29630    1.000
    H36      H        0.38130    0.17750    0.29110    1.000
    O19      O        0.58270    0.89090    0.36740    1.000
    O20      O        0.65880    0.94130    0.42660    1.000
    C64      C        0.63210    0.90600    0.37100    1.000
    C65      C        0.68120    0.87070    0.33940    1.000
    C66      C        0.74080    0.87740    0.34690    1.000
    H37      H        0.75570    0.90700    0.37620    1.000
    C67      C        0.77850    0.84080    0.31140    1.000
    H38      H        0.81920    0.84540    0.31660    1.000
    C68      C        0.75670    0.79740    0.26840    1.000
    C69      C        0.69720    0.79060    0.26090    1.000
    H39      H        0.68230    0.76100    0.23150    1.000
    C70      C        0.65940    0.82720    0.29630    1.000
    H40      H        0.61870    0.82250    0.29110    1.000
    O21      O        0.89090    0.41730    0.86740    1.000
    O22      O        0.94130    0.34120    0.92660    1.000
    C71      C        0.90600    0.36790    0.87100    1.000
    C72      C        0.87070    0.31880    0.83940    1.000
    C73      C        0.87740    0.25920    0.84690    1.000
    H41      H        0.90700    0.24430    0.87620    1.000
    C74      C        0.84080    0.22150    0.81140    1.000
    H42      H        0.84540    0.18080    0.81660    1.000
    C75      C        0.79740    0.24330    0.76840    1.000
    C76      C        0.79060    0.30280    0.76090    1.000
    H43      H        0.76100    0.31770    0.73150    1.000
    C77      C        0.82720    0.34060    0.79630    1.000
    H44      H        0.82250    0.38130    0.79110    1.000
    O23      O        0.10910    0.58270    0.86740    1.000
    O24      O        0.05870    0.65880    0.92660    1.000
    C78      C        0.09400    0.63210    0.87100    1.000
    C79      C        0.12930    0.68120    0.83940    1.000
    C80      C        0.12260    0.74080    0.84690    1.000
    H45      H        0.09300    0.75570    0.87620    1.000
    C81      C        0.15920    0.77850    0.81140    1.000
    H46      H        0.15460    0.81920    0.81660    1.000
    C82      C        0.20260    0.75670    0.76840    1.000
    C83      C        0.20940    0.69720    0.76090    1.000
    H47      H        0.23900    0.68230    0.73150    1.000
    C84      C        0.17280    0.65940    0.79630    1.000
    H48      H        0.17750    0.61870    0.79110    1.000
    O25      O        0.58270    0.10910    0.63260    1.000
    O26      O        0.65880    0.05870    0.57340    1.000
    C85      C        0.63210    0.09400    0.62900    1.000
    C86      C        0.68120    0.12930    0.66060    1.000
    C87      C        0.74080    0.12260    0.65310    1.000
    H49      H        0.75570    0.09300    0.62380    1.000
    C88      C        0.77850    0.15920    0.68860    1.000
    H50      H        0.81920    0.15460    0.68340    1.000
    C89      C        0.75670    0.20260    0.73160    1.000
    C90      C        0.69720    0.20940    0.73910    1.000
    H51      H        0.68230    0.23900    0.76850    1.000
    C91      C        0.65940    0.17280    0.70370    1.000
    H52      H        0.61870    0.17750    0.70890    1.000
    O27      O        0.41730    0.89090    0.63260    1.000
    O28      O        0.34120    0.94130    0.57340    1.000
    C92      C        0.36790    0.90600    0.62900    1.000
    C93      C        0.31880    0.87070    0.66060    1.000
    C94      C        0.25920    0.87740    0.65310    1.000
    H53      H        0.24430    0.90700    0.62380    1.000
    C95      C        0.22150    0.84080    0.68860    1.000
    H54      H        0.18080    0.84540    0.68340    1.000
    C96      C        0.24330    0.79740    0.73160    1.000
    C97      C        0.30280    0.79060    0.73910    1.000
    H55      H        0.31770    0.76100    0.76850    1.000
    C98      C        0.34060    0.82720    0.70370    1.000
    H56      H        0.38130    0.82250    0.70890    1.000
    O29      O        0.10910    0.41730    0.13260    1.000
    O30      O        0.05870    0.34120    0.07340    1.000
    C99      C        0.09400    0.36790    0.12900    1.000
    C100     C        0.12930    0.31880    0.16060    1.000
    C101     C        0.12260    0.25920    0.15310    1.000
    H57      H        0.09300    0.24430    0.12380    1.000
    C102     C        0.15920    0.22150    0.18860    1.000
    H58      H        0.15460    0.18080    0.18340    1.000
    C103     C        0.20260    0.24330    0.23160    1.000
    C104     C        0.20940    0.30280    0.23910    1.000
    H59      H        0.23900    0.31770    0.26850    1.000
    C105     C        0.17280    0.34060    0.20370    1.000
    H60      H        0.17750    0.38130    0.20890    1.000
    O31      O        0.89090    0.58270    0.13260    1.000
    O32      O        0.94130    0.65880    0.07340    1.000
    C106     C        0.90600    0.63210    0.12900    1.000
    C107     C        0.87070    0.68120    0.16060    1.000
    C108     C        0.87740    0.74080    0.15310    1.000
    H61      H        0.90700    0.75570    0.12380    1.000
    C109     C        0.84080    0.77850    0.18860    1.000
    H62      H        0.84540    0.81920    0.18340    1.000
    C110     C        0.79740    0.75670    0.23160    1.000
    C111     C        0.79060    0.69720    0.23910    1.000
    H63      H        0.76100    0.68230    0.26850    1.000
    C112     C        0.82720    0.65940    0.20370    1.000
    H64      H        0.82250    0.61870    0.20890    1.000
    Zr1      Zr       0.50000    0.92371    0.59281    1.000
    O33      O        0.50000    0.95020    0.70370    1.000
    O34      O        0.50000    0.82470    0.58140    1.000
    C113     C        0.50000    0.05211    0.85190    1.000
    H65      H        0.50000    0.08780    0.82710    1.000
    C114     C        0.50000    0.05213    0.92440    1.000
    H66      H        0.50000    0.08780    0.94920    1.000
    Zr2      Zr       0.50000    0.07629    0.59281    1.000
    O35      O        0.50000    0.04980    0.70370    1.000
    O36      O        0.50000    0.17530    0.58140    1.000
    C115     C        0.50000    0.94789    0.85190    1.000
    H67      H        0.50000    0.91220    0.82710    1.000
    C116     C        0.50000    0.94787    0.92440    1.000
    H68      H        0.50000    0.91220    0.94920    1.000
    Zr3      Zr       0.07629    0.50000    0.09281    1.000
    O37      O        0.04980    0.50000    0.20370    1.000
    O38      O        0.17530    0.50000    0.08140    1.000
    C117     C        0.94789    0.50000    0.35190    1.000
    H69      H        0.91220    0.50000    0.32710    1.000
    C118     C        0.94787    0.50000    0.42440    1.000
    H70      H        0.91220    0.50000    0.44920    1.000
    Zr4      Zr       0.92371    0.50000    0.09281    1.000
    O39      O        0.95020    0.50000    0.20370    1.000
    O40      O        0.82470    0.50000    0.08140    1.000
    C119     C        0.05211    0.50000    0.35190    1.000
    H71      H        0.08780    0.50000    0.32710    1.000
    C120     C        0.05213    0.50000    0.42440    1.000
    H72      H        0.08780    0.50000    0.44920    1.000
    Zr5      Zr       0.50000    0.92371    0.40719    1.000
    O41      O        0.50000    0.95020    0.29630    1.000
    O42      O        0.50000    0.82470    0.41860    1.000
    C121     C        0.50000    0.05211    0.14810    1.000
    H73      H        0.50000    0.08780    0.17290    1.000
    C122     C        0.50000    0.05213    0.07560    1.000
    H74      H        0.50000    0.08780    0.05080    1.000
    Zr6      Zr       0.50000    0.07629    0.40719    1.000
    O43      O        0.50000    0.04980    0.29630    1.000
    O44      O        0.50000    0.17530    0.41860    1.000
    C123     C        0.50000    0.94789    0.14810    1.000
    H75      H        0.50000    0.91220    0.17290    1.000
    C124     C        0.50000    0.94787    0.07560    1.000
    H76      H        0.50000    0.91220    0.05080    1.000
    Zr7      Zr       0.92371    0.50000    0.90719    1.000
    O45      O        0.95020    0.50000    0.79630    1.000
    O46      O        0.82470    0.50000    0.91860    1.000
    C125     C        0.05211    0.50000    0.64810    1.000
    H77      H        0.08780    0.50000    0.67290    1.000
    C126     C        0.05213    0.50000    0.57560    1.000
    H78      H        0.08780    0.50000    0.55080    1.000
    Zr8      Zr       0.07629    0.50000    0.90719    1.000
    O47      O        0.04980    0.50000    0.79630    1.000
    O48      O        0.17530    0.50000    0.91860    1.000
    C127     C        0.94789    0.50000    0.64810    1.000
    H79      H        0.91220    0.50000    0.67290    1.000
    C128     C        0.94787    0.50000    0.57560    1.000
    H80      H        0.91220    0.50000    0.55080    1.000
    Zr9      Zr       0.60867    0.00000    0.50000    1.000
    Zr10     Zr       0.39133    0.00000    0.50000    1.000
    Zr11     Zr       0.00000    0.60867    0.00000    1.000
    Zr12     Zr       0.00000    0.39133    0.00000    1.000
    O49      O        0.55620    0.00000    0.59310    1.000
    O50      O        0.44380    0.00000    0.59310    1.000
    O51      O        0.00000    0.55620    0.09310    1.000
    O52      O        0.00000    0.44380    0.09310    1.000
    O53      O        0.44380    0.00000    0.40690    1.000
    O54      O        0.55620    0.00000    0.40690    1.000
    O55      O        0.00000    0.55620    0.90690    1.000
    O56      O        0.00000    0.44380    0.90690    1.000
    C129     C        0.50000    0.00000    0.73680    1.000
    C130     C        0.50000    0.00000    0.81550    1.000
    C131     C        0.50000    0.00000    0.96080    1.000
    C132     C        0.00000    0.50000    0.23680    1.000
    C133     C        0.00000    0.50000    0.31550    1.000
    C134     C        0.00000    0.50000    0.46080    1.000
    C135     C        0.50000    0.00000    0.26320    1.000
    C136     C        0.50000    0.00000    0.18450    1.000
    C137     C        0.50000    0.00000    0.03920    1.000
    C138     C        0.00000    0.50000    0.76320    1.000
    C139     C        0.00000    0.50000    0.68450    1.000
    C140     C        0.00000    0.50000    0.53920    1.000
    O57      O        0.55140    0.91830    0.50000    1.000
    O58      O        0.44860    0.08170    0.50000    1.000
    O59      O        0.08170    0.55140    0.00000    1.000
    O60      O        0.91830    0.44860    0.00000    1.000
    O61      O        0.44860    0.91830    0.50000    1.000
    O62      O        0.55140    0.08170    0.50000    1.000
    O63      O        0.91830    0.55140    0.00000    1.000
    O64      O        0.08170    0.44860    0.00000    1.000
