# CIF file generated by openbabel 3.1.0, see https://openbabel.org
data_I
_chemical_name_common 'image0'
_cell_length_a 13.4107
_cell_length_b 13.4107
_cell_length_c 27.5678
_cell_angle_alpha 90
_cell_angle_beta 90
_cell_angle_gamma 120
_space_group_name_H-M_alt 'P 1'
_space_group_name_Hall 'P 1'
loop_
    _symmetry_equiv_pos_as_xyz
    x,y,z
loop_
    _atom_site_label
    _atom_site_type_symbol
    _atom_site_fract_x
    _atom_site_fract_y
    _atom_site_fract_z
    _atom_site_occupancy
    V1       V        0.29205    0.85656    0.52727    1.000
    P1       P        0.16072    0.97361    0.58504    1.000
    P2       P        0.12631    0.63004    0.46384    1.000
    O1       O        0.14950    0.71620    0.50424    1.000
    O2       O        0.16890    0.54750    0.47584    1.000
    O3       O        0.00000    0.56860    0.44972    1.000
    O4       O        0.18790    0.87980    0.57110    1.000
    O5       O        0.32470    0.77130    0.57724    1.000
    O6       O        0.14380    0.07140    0.70438    1.000
    O7       O        0.06560    0.92530    0.62269    1.000
    O8       O        0.13610    0.02660    0.54056    1.000
    H1       H        0.25240    0.05610    0.60540    1.000
    O9       O        0.19450    0.69500    0.41890    1.000
    H2       H        0.17510    0.74150    0.41060    1.000
    O10      O        0.26310    0.07040    0.61040    1.000
    H3       H        0.31780    0.10010    0.59160    1.000
    H4       H        0.33790    0.61140    0.65570    1.000
    H5       H        0.18400    0.68900    0.42610    1.000
    V2       V        0.14344    0.43549    0.52727    1.000
    P3       P        0.02639    0.18711    0.58504    1.000
    P4       P        0.36996    0.49627    0.46384    1.000
    O11      O        0.28380    0.43330    0.50424    1.000
    O12      O        0.45250    0.62140    0.47584    1.000
    O13      O        0.43140    0.43140    0.44972    1.000
    O14      O        0.12020    0.30810    0.57110    1.000
    O15      O        0.22870    0.55340    0.57724    1.000
    O16      O        0.92860    0.07240    0.70438    1.000
    O17      O        0.07470    0.14030    0.62269    1.000
    O18      O        0.97340    0.10950    0.54056    1.000
    H6       H        0.94390    0.19630    0.60540    1.000
    O19      O        0.30500    0.49950    0.41890    1.000
    H7       H        0.25850    0.43360    0.41060    1.000
    O20      O        0.92960    0.19270    0.61040    1.000
    H8       H        0.89990    0.21770    0.59160    1.000
    H9       H        0.38860    0.72650    0.65570    1.000
    H10      H        0.31100    0.49500    0.42610    1.000
    V3       V        0.56451    0.70795    0.52727    1.000
    P5       P        0.81289    0.83928    0.58504    1.000
    P6       P        0.50373    0.87369    0.46384    1.000
    O21      O        0.56670    0.85050    0.50424    1.000
    O22      O        0.37860    0.83110    0.47584    1.000
    O23      O        0.56860    0.00000    0.44972    1.000
    O24      O        0.69190    0.81210    0.57110    1.000
    O25      O        0.44660    0.67530    0.57724    1.000
    O26      O        0.92760    0.85620    0.70438    1.000
    O27      O        0.85970    0.93440    0.62269    1.000
    O28      O        0.89050    0.86390    0.54056    1.000
    H11      H        0.80370    0.74760    0.60540    1.000
    O29      O        0.50050    0.80550    0.41890    1.000
    H12      H        0.56640    0.82490    0.41060    1.000
    O30      O        0.80730    0.73690    0.61040    1.000
    H13      H        0.78230    0.68220    0.59160    1.000
    H14      H        0.27350    0.66210    0.65570    1.000
    H15      H        0.50500    0.81600    0.42610    1.000
    V4       V        0.70795    0.14344    0.02727    1.000
    P7       P        0.83928    0.02639    0.08504    1.000
    P8       P        0.87369    0.36996    0.96384    1.000
    O31      O        0.85050    0.28380    0.00424    1.000
    O32      O        0.83110    0.45250    0.97584    1.000
    O33      O        0.00000    0.43140    0.94972    1.000
    O34      O        0.81210    0.12020    0.07110    1.000
    O35      O        0.67530    0.22870    0.07724    1.000
    O36      O        0.85620    0.92860    0.20438    1.000
    O37      O        0.93440    0.07470    0.12269    1.000
    O38      O        0.86390    0.97340    0.04056    1.000
    H16      H        0.74760    0.94390    0.10540    1.000
    O39      O        0.80550    0.30500    0.91890    1.000
    H17      H        0.82490    0.25850    0.91060    1.000
    O40      O        0.73690    0.92960    0.11040    1.000
    H18      H        0.68220    0.89990    0.09160    1.000
    H19      H        0.66210    0.38860    0.15570    1.000
    H20      H        0.81600    0.31100    0.92610    1.000
    V5       V        0.85656    0.56451    0.02727    1.000
    P9       P        0.97361    0.81289    0.08504    1.000
    P10      P        0.63004    0.50373    0.96384    1.000
    O41      O        0.71620    0.56670    0.00424    1.000
    O42      O        0.54750    0.37860    0.97584    1.000
    O43      O        0.56860    0.56860    0.94972    1.000
    O44      O        0.87980    0.69190    0.07110    1.000
    O45      O        0.77130    0.44660    0.07724    1.000
    O46      O        0.07140    0.92760    0.20438    1.000
    O47      O        0.92530    0.85970    0.12269    1.000
    O48      O        0.02660    0.89050    0.04056    1.000
    H21      H        0.05610    0.80370    0.10540    1.000
    O49      O        0.69500    0.50050    0.91890    1.000
    H22      H        0.74150    0.56640    0.91060    1.000
    O50      O        0.07040    0.80730    0.11040    1.000
    H23      H        0.10010    0.78230    0.09160    1.000
    H24      H        0.61140    0.27350    0.15570    1.000
    H25      H        0.68900    0.50500    0.92610    1.000
    V6       V        0.43549    0.29205    0.02727    1.000
    P11      P        0.18711    0.16072    0.08504    1.000
    P12      P        0.49627    0.12631    0.96384    1.000
    O51      O        0.43330    0.14950    0.00424    1.000
    O52      O        0.62140    0.16890    0.97584    1.000
    O53      O        0.43140    0.00000    0.94972    1.000
    O54      O        0.30810    0.18790    0.07110    1.000
    O55      O        0.55340    0.32470    0.07724    1.000
    O56      O        0.07240    0.14380    0.20438    1.000
    O57      O        0.14030    0.06560    0.12269    1.000
    O58      O        0.10950    0.13610    0.04056    1.000
    H26      H        0.19630    0.25240    0.10540    1.000
    O59      O        0.49950    0.19450    0.91890    1.000
    H27      H        0.43360    0.17510    0.91060    1.000
    O60      O        0.19270    0.26310    0.11040    1.000
    H28      H        0.21770    0.31780    0.09160    1.000
    H29      H        0.72650    0.33790    0.15570    1.000
    H30      H        0.49500    0.18400    0.92610    1.000
    V7       V        0.70795    0.14344    0.47273    1.000
    P13      P        0.83928    0.02639    0.41496    1.000
    P14      P        0.87369    0.36996    0.53616    1.000
    O61      O        0.85050    0.28380    0.49576    1.000
    O62      O        0.83110    0.45250    0.52416    1.000
    O63      O        0.00000    0.43140    0.55028    1.000
    O64      O        0.81210    0.12020    0.42890    1.000
    O65      O        0.67530    0.22870    0.42276    1.000
    O66      O        0.85620    0.92860    0.29562    1.000
    O67      O        0.93440    0.07470    0.37731    1.000
    O68      O        0.86390    0.97340    0.45944    1.000
    H31      H        0.74760    0.94390    0.39460    1.000
    O69      O        0.80550    0.30500    0.58110    1.000
    H32      H        0.82490    0.25850    0.58940    1.000
    O70      O        0.73690    0.92960    0.38960    1.000
    H33      H        0.68220    0.89990    0.40840    1.000
    H34      H        0.66210    0.38860    0.34430    1.000
    H35      H        0.81600    0.31100    0.57390    1.000
    V8       V        0.85656    0.56451    0.47273    1.000
    P15      P        0.97361    0.81289    0.41496    1.000
    P16      P        0.63004    0.50373    0.53616    1.000
    O71      O        0.71620    0.56670    0.49576    1.000
    O72      O        0.54750    0.37860    0.52416    1.000
    O73      O        0.56860    0.56860    0.55028    1.000
    O74      O        0.87980    0.69190    0.42890    1.000
    O75      O        0.77130    0.44660    0.42276    1.000
    O76      O        0.07140    0.92760    0.29562    1.000
    O77      O        0.92530    0.85970    0.37731    1.000
    O78      O        0.02660    0.89050    0.45944    1.000
    H36      H        0.05610    0.80370    0.39460    1.000
    O79      O        0.69500    0.50050    0.58110    1.000
    H37      H        0.74150    0.56640    0.58940    1.000
    O80      O        0.07040    0.80730    0.38960    1.000
    H38      H        0.10010    0.78230    0.40840    1.000
    H39      H        0.61140    0.27350    0.34430    1.000
    H40      H        0.68900    0.50500    0.57390    1.000
    V9       V        0.43549    0.29205    0.47273    1.000
    P17      P        0.18711    0.16072    0.41496    1.000
    P18      P        0.49627    0.12631    0.53616    1.000
    O81      O        0.43330    0.14950    0.49576    1.000
    O82      O        0.62140    0.16890    0.52416    1.000
    O83      O        0.43140    0.00000    0.55028    1.000
    O84      O        0.30810    0.18790    0.42890    1.000
    O85      O        0.55340    0.32470    0.42276    1.000
    O86      O        0.07240    0.14380    0.29562    1.000
    O87      O        0.14030    0.06560    0.37731    1.000
    O88      O        0.10950    0.13610    0.45944    1.000
    H41      H        0.19630    0.25240    0.39460    1.000
    O89      O        0.49950    0.19450    0.58110    1.000
    H42      H        0.43360    0.17510    0.58940    1.000
    O90      O        0.19270    0.26310    0.38960    1.000
    H43      H        0.21770    0.31780    0.40840    1.000
    H44      H        0.72650    0.33790    0.34430    1.000
    H45      H        0.49500    0.18400    0.57390    1.000
    V10      V        0.29205    0.85656    0.97273    1.000
    P19      P        0.16072    0.97361    0.91496    1.000
    P20      P        0.12631    0.63004    0.03616    1.000
    O91      O        0.14950    0.71620    0.99576    1.000
    O92      O        0.16890    0.54750    0.02416    1.000
    O93      O        0.00000    0.56860    0.05028    1.000
    O94      O        0.18790    0.87980    0.92890    1.000
    O95      O        0.32470    0.77130    0.92276    1.000
    O96      O        0.14380    0.07140    0.79562    1.000
    O97      O        0.06560    0.92530    0.87731    1.000
    O98      O        0.13610    0.02660    0.95944    1.000
    H46      H        0.25240    0.05610    0.89460    1.000
    O99      O        0.19450    0.69500    0.08110    1.000
    H47      H        0.17510    0.74150    0.08940    1.000
    O100     O        0.26310    0.07040    0.88960    1.000
    H48      H        0.31780    0.10010    0.90840    1.000
    H49      H        0.33790    0.61140    0.84430    1.000
    H50      H        0.18400    0.68900    0.07390    1.000
    V11      V        0.14344    0.43549    0.97273    1.000
    P21      P        0.02639    0.18711    0.91496    1.000
    P22      P        0.36996    0.49627    0.03616    1.000
    O101     O        0.28380    0.43330    0.99576    1.000
    O102     O        0.45250    0.62140    0.02416    1.000
    O103     O        0.43140    0.43140    0.05028    1.000
    O104     O        0.12020    0.30810    0.92890    1.000
    O105     O        0.22870    0.55340    0.92276    1.000
    O106     O        0.92860    0.07240    0.79562    1.000
    O107     O        0.07470    0.14030    0.87731    1.000
    O108     O        0.97340    0.10950    0.95944    1.000
    H51      H        0.94390    0.19630    0.89460    1.000
    O109     O        0.30500    0.49950    0.08110    1.000
    H52      H        0.25850    0.43360    0.08940    1.000
    O110     O        0.92960    0.19270    0.88960    1.000
    H53      H        0.89990    0.21770    0.90840    1.000
    H54      H        0.38860    0.72650    0.84430    1.000
    H55      H        0.31100    0.49500    0.07390    1.000
    V12      V        0.56451    0.70795    0.97273    1.000
    P23      P        0.81289    0.83928    0.91496    1.000
    P24      P        0.50373    0.87369    0.03616    1.000
    O111     O        0.56670    0.85050    0.99576    1.000
    O112     O        0.37860    0.83110    0.02416    1.000
    O113     O        0.56860    0.00000    0.05028    1.000
    O114     O        0.69190    0.81210    0.92890    1.000
    O115     O        0.44660    0.67530    0.92276    1.000
    O116     O        0.92760    0.85620    0.79562    1.000
    O117     O        0.85970    0.93440    0.87731    1.000
    O118     O        0.89050    0.86390    0.95944    1.000
    H56      H        0.80370    0.74760    0.89460    1.000
    O119     O        0.50050    0.80550    0.08110    1.000
    H57      H        0.56640    0.82490    0.08940    1.000
    O120     O        0.80730    0.73690    0.88960    1.000
    H58      H        0.78230    0.68220    0.90840    1.000
    H59      H        0.27350    0.66210    0.84430    1.000
    H60      H        0.50500    0.81600    0.07390    1.000
    V13      V        0.00000    0.00000    0.50000    1.000
    V14      V        0.00000    0.00000    0.00000    1.000
    V15      V        0.00000    0.00000    0.66457    1.000
    V16      V        0.00000    0.00000    0.16457    1.000
    V17      V        0.00000    0.00000    0.33543    1.000
    V18      V        0.00000    0.00000    0.83543    1.000
    P25      P        0.33333    0.66667    0.59128    1.000
    H61      H        0.33333    0.66667    0.63850    1.000
    O121     O        0.33333    0.66667    0.64580    1.000
    P26      P        0.66667    0.33333    0.09128    1.000
    H62      H        0.66667    0.33333    0.13850    1.000
    O122     O        0.66667    0.33333    0.14580    1.000
    P27      P        0.66667    0.33333    0.40872    1.000
    H63      H        0.66667    0.33333    0.36150    1.000
    O123     O        0.66667    0.33333    0.35420    1.000
    P28      P        0.33333    0.66667    0.90872    1.000
    H64      H        0.33333    0.66667    0.86150    1.000
    O124     O        0.33333    0.66667    0.85420    1.000
    P29      P        0.19420    0.05690    0.75000    1.000
    O125     O        0.20550    0.94730    0.75000    1.000
    H65      H        0.14120    0.89000    0.75000    1.000
    O126     O        0.32280    0.14230    0.75000    1.000
    H66      H        0.33350    0.20810    0.75000    1.000
    P30      P        0.20090    0.12320    0.75000    1.000
    O127     O        0.22600    0.25700    0.75000    1.000
    H67      H        0.16460    0.25660    0.75000    1.000
    H68      H        0.31880    0.07930    0.75000    1.000
    P31      P        0.94310    0.13730    0.75000    1.000
    O128     O        0.05270    0.25820    0.75000    1.000
    H69      H        0.11000    0.25120    0.75000    1.000
    O129     O        0.85770    0.18050    0.75000    1.000
    H70      H        0.79190    0.12540    0.75000    1.000
    P32      P        0.87680    0.07770    0.75000    1.000
    O130     O        0.74300    0.96900    0.75000    1.000
    H71      H        0.74340    0.90800    0.75000    1.000
    H72      H        0.92070    0.23950    0.75000    1.000
    P33      P        0.86270    0.80580    0.75000    1.000
    O131     O        0.74180    0.79450    0.75000    1.000
    H73      H        0.74880    0.85880    0.75000    1.000
    O132     O        0.81950    0.67720    0.75000    1.000
    H74      H        0.87460    0.66650    0.75000    1.000
    P34      P        0.92230    0.79910    0.75000    1.000
    O133     O        0.03100    0.77400    0.75000    1.000
    H75      H        0.09200    0.83540    0.75000    1.000
    H76      H        0.76050    0.68120    0.75000    1.000
    P35      P        0.80580    0.94310    0.25000    1.000
    O134     O        0.79450    0.05270    0.25000    1.000
    H77      H        0.85880    0.11000    0.25000    1.000
    O135     O        0.67720    0.85770    0.25000    1.000
    H78      H        0.66650    0.79190    0.25000    1.000
    P36      P        0.79910    0.87680    0.25000    1.000
    O136     O        0.77400    0.74300    0.25000    1.000
    H79      H        0.83540    0.74340    0.25000    1.000
    H80      H        0.68120    0.92070    0.25000    1.000
    P37      P        0.05690    0.86270    0.25000    1.000
    O137     O        0.94730    0.74180    0.25000    1.000
    H81      H        0.89000    0.74880    0.25000    1.000
    O138     O        0.14230    0.81950    0.25000    1.000
    H82      H        0.20810    0.87460    0.25000    1.000
    P38      P        0.12320    0.92230    0.25000    1.000
    O139     O        0.25700    0.03100    0.25000    1.000
    H83      H        0.25660    0.09200    0.25000    1.000
    H84      H        0.07930    0.76050    0.25000    1.000
    P39      P        0.13730    0.19420    0.25000    1.000
    O140     O        0.25820    0.20550    0.25000    1.000
    H85      H        0.25120    0.14120    0.25000    1.000
    O141     O        0.18050    0.32280    0.25000    1.000
    H86      H        0.12540    0.33350    0.25000    1.000
    P40      P        0.07770    0.20090    0.25000    1.000
    O142     O        0.96900    0.22600    0.25000    1.000
    H87      H        0.90800    0.16460    0.25000    1.000
    H88      H        0.23950    0.31880    0.25000    1.000
