# CIF file generated by openbabel 3.1.0, see https://openbabel.org
data_I
_chemical_name_common 'image0'
_cell_length_a 11.1148
_cell_length_b 15.6485
_cell_length_c 18.8376
_cell_angle_alpha 90
_cell_angle_beta 92.647
_cell_angle_gamma 90
_space_group_name_H-M_alt 'P 1'
_space_group_name_Hall 'P 1'
loop_
    _symmetry_equiv_pos_as_xyz
    x,y,z
loop_
    _atom_site_label
    _atom_site_type_symbol
    _atom_site_fract_x
    _atom_site_fract_y
    _atom_site_fract_z
    _atom_site_occupancy
    U1       U        0.74068    0.26440    0.23751    1.000
    U2       U        0.48825    0.21445    0.08908    1.000
    U3       U        0.17037    0.22407    0.94513    1.000
    U4       U        0.98968    0.30583    0.38733    1.000
    U5       U        0.81212    0.23033    0.03102    1.000
    U6       U        0.13787    0.51651    0.17973    1.000
    Co1      Co       0.86120    0.00500    0.06050    1.000
    P1       P        0.01420    0.29640    0.18831    1.000
    P2       P        0.46330    0.23510    0.28432    1.000
    O1       O        0.08620    0.37430    0.17280    1.000
    O2       O        0.90410    0.28460    0.13800    1.000
    O3       O        0.95820    0.29480    0.26160    1.000
    O4       O        0.29020    0.24370    0.12930    1.000
    O5       O        0.15040    0.17230    0.06690    1.000
    O6       O        0.38500    0.15790    0.29100    1.000
    O7       O        0.57340    0.23690    0.33600    1.000
    O8       O        0.52000    0.24570    0.21160    1.000
    O9       O        0.33110    0.34110    0.41600    1.000
    O10      O        0.18660    0.29100    0.34350    1.000
    O11      O        0.11330    0.11700    0.93140    1.000
    O12      O        0.87130    0.12810    0.05800    1.000
    O13      O        0.79200    0.29590    0.35200    1.000
    O14      O        0.68660    0.22620    0.12390    1.000
    O15      O        0.36660    0.17670    0.98760    1.000
    O16      O        0.61400    0.17360    0.99240    1.000
    O17      O        0.98940    0.27820    0.98520    1.000
    O18      O        0.90500    0.99460    0.95170    1.000
    O19      O        0.04500    0.00850    0.09200    1.000
    C1       C        0.11110    0.20300    0.18680    1.000
    H1       H        0.16250    0.20070    0.23110    1.000
    H2       H        0.06120    0.15060    0.18410    1.000
    C2       C        0.19070    0.20710    0.12240    1.000
    C3       C        0.37100    0.33040    0.29440    1.000
    H3       H        0.42400    0.38060    0.30300    1.000
    H4       H        0.32230    0.34060    0.24990    1.000
    C4       C        0.28780    0.32120    0.35570    1.000
    U7       U        0.75932    0.76440    0.26249    1.000
    U8       U        0.01175    0.71445    0.41092    1.000
    U9       U        0.32963    0.72407    0.55487    1.000
    U10      U        0.51032    0.80583    0.11267    1.000
    U11      U        0.68788    0.73033    0.46898    1.000
    U12      U        0.36213    0.01651    0.32027    1.000
    Co2      Co       0.63880    0.50500    0.43950    1.000
    P3       P        0.48580    0.79640    0.31169    1.000
    P4       P        0.03670    0.73510    0.21568    1.000
    O20      O        0.41380    0.87430    0.32720    1.000
    O21      O        0.59590    0.78460    0.36200    1.000
    O22      O        0.54180    0.79480    0.23840    1.000
    O23      O        0.20980    0.74370    0.37070    1.000
    O24      O        0.34960    0.67230    0.43310    1.000
    O25      O        0.11500    0.65790    0.20900    1.000
    O26      O        0.92660    0.73690    0.16400    1.000
    O27      O        0.98000    0.74570    0.28840    1.000
    O28      O        0.16890    0.84110    0.08400    1.000
    O29      O        0.31340    0.79100    0.15650    1.000
    O30      O        0.38670    0.61700    0.56860    1.000
    O31      O        0.62870    0.62810    0.44200    1.000
    O32      O        0.70800    0.79590    0.14800    1.000
    O33      O        0.81340    0.72620    0.37610    1.000
    O34      O        0.13340    0.67670    0.51240    1.000
    O35      O        0.88600    0.67360    0.50760    1.000
    O36      O        0.51060    0.77820    0.51480    1.000
    O37      O        0.59500    0.49460    0.54830    1.000
    O38      O        0.45500    0.50850    0.40800    1.000
    C5       C        0.38890    0.70300    0.31320    1.000
    H5       H        0.33750    0.70070    0.26890    1.000
    H6       H        0.43880    0.65060    0.31590    1.000
    C6       C        0.30930    0.70710    0.37760    1.000
    C7       C        0.12900    0.83040    0.20560    1.000
    H7       H        0.07600    0.88060    0.19700    1.000
    H8       H        0.17770    0.84060    0.25010    1.000
    C8       C        0.21220    0.82120    0.14430    1.000
    U13      U        0.25932    0.73560    0.76249    1.000
    U14      U        0.51175    0.78555    0.91092    1.000
    U15      U        0.82963    0.77593    0.05487    1.000
    U16      U        0.01032    0.69417    0.61267    1.000
    U17      U        0.18788    0.76967    0.96898    1.000
    U18      U        0.86213    0.48349    0.82027    1.000
    Co3      Co       0.13880    0.99500    0.93950    1.000
    P5       P        0.98580    0.70360    0.81169    1.000
    P6       P        0.53670    0.76490    0.71568    1.000
    O39      O        0.91380    0.62570    0.82720    1.000
    O40      O        0.09590    0.71540    0.86200    1.000
    O41      O        0.04180    0.70520    0.73840    1.000
    O42      O        0.70980    0.75630    0.87070    1.000
    O43      O        0.84960    0.82770    0.93310    1.000
    O44      O        0.61500    0.84210    0.70900    1.000
    O45      O        0.42660    0.76310    0.66400    1.000
    O46      O        0.48000    0.75430    0.78840    1.000
    O47      O        0.66890    0.65890    0.58400    1.000
    O48      O        0.81340    0.70900    0.65650    1.000
    O49      O        0.88670    0.88300    0.06860    1.000
    O50      O        0.12870    0.87190    0.94200    1.000
    O51      O        0.20800    0.70410    0.64800    1.000
    O52      O        0.31340    0.77380    0.87610    1.000
    O53      O        0.63340    0.82330    0.01240    1.000
    O54      O        0.38600    0.82640    0.00760    1.000
    O55      O        0.01060    0.72180    0.01480    1.000
    O56      O        0.09500    0.00540    0.04830    1.000
    O57      O        0.95500    0.99150    0.90800    1.000
    C9       C        0.88890    0.79700    0.81320    1.000
    H9       H        0.83750    0.79930    0.76890    1.000
    H10      H        0.93880    0.84940    0.81590    1.000
    C10      C        0.80930    0.79290    0.87760    1.000
    C11      C        0.62900    0.66960    0.70560    1.000
    H11      H        0.57600    0.61940    0.69700    1.000
    H12      H        0.67770    0.65940    0.75010    1.000
    C12      C        0.71220    0.67880    0.64430    1.000
    U19      U        0.24068    0.23560    0.73751    1.000
    U20      U        0.98825    0.28555    0.58908    1.000
    U21      U        0.67037    0.27593    0.44513    1.000
    U22      U        0.48968    0.19417    0.88733    1.000
    U23      U        0.31212    0.26967    0.53102    1.000
    U24      U        0.63787    0.98349    0.67973    1.000
    Co4      Co       0.36120    0.49500    0.56050    1.000
    P7       P        0.51420    0.20360    0.68831    1.000
    P8       P        0.96330    0.26490    0.78432    1.000
    O58      O        0.58620    0.12570    0.67280    1.000
    O59      O        0.40410    0.21540    0.63800    1.000
    O60      O        0.45820    0.20520    0.76160    1.000
    O61      O        0.79020    0.25630    0.62930    1.000
    O62      O        0.65040    0.32770    0.56690    1.000
    O63      O        0.88500    0.34210    0.79100    1.000
    O64      O        0.07340    0.26310    0.83600    1.000
    O65      O        0.02000    0.25430    0.71160    1.000
    O66      O        0.83110    0.15890    0.91600    1.000
    O67      O        0.68660    0.20900    0.84350    1.000
    O68      O        0.61330    0.38300    0.43140    1.000
    O69      O        0.37130    0.37190    0.55800    1.000
    O70      O        0.29200    0.20410    0.85200    1.000
    O71      O        0.18660    0.27380    0.62390    1.000
    O72      O        0.86660    0.32330    0.48760    1.000
    O73      O        0.11400    0.32640    0.49240    1.000
    O74      O        0.48940    0.22180    0.48520    1.000
    O75      O        0.40500    0.50540    0.45170    1.000
    O76      O        0.54500    0.49150    0.59200    1.000
    C13      C        0.61110    0.29700    0.68680    1.000
    H13      H        0.66250    0.29930    0.73110    1.000
    H14      H        0.56120    0.34940    0.68410    1.000
    C14      C        0.69070    0.29290    0.62240    1.000
    C15      C        0.87100    0.16960    0.79440    1.000
    H15      H        0.92400    0.11940    0.80300    1.000
    H16      H        0.82230    0.15940    0.74990    1.000
    C16      C        0.78780    0.17880    0.85570    1.000
