# CIF file generated by openbabel 3.1.0, see https://openbabel.org
data_I
_chemical_name_common 'LAGRES_clean'
_cell_length_a 8.5776
_cell_length_b 10.195
_cell_length_c 10.9115
_cell_angle_alpha 66.672
_cell_angle_beta 69.425
_cell_angle_gamma 78.113
_space_group_name_H-M_alt 'P 1'
_space_group_name_Hall 'P 1'
loop_
    _symmetry_equiv_pos_as_xyz
    x,y,z
loop_
    _atom_site_label
    _atom_site_type_symbol
    _atom_site_fract_x
    _atom_site_fract_y
    _atom_site_fract_z
    _atom_site_occupancy
    Er1      Er       0.34667    0.56606    0.84658    1.000
    Er2      Er       0.65333    0.43394    0.15342    1.000
    H1       H        0.79500    0.37130    0.51500    1.000
    H2       H        0.93510    0.65860    0.61660    1.000
    H3       H        0.28870    0.17840    0.02210    1.000
    H4       H        0.76440    0.02800    0.99500    1.000
    H5       H        0.85330    0.87640    0.72630    1.000
    H6       H        0.28580    0.94920    0.41840    1.000
    H7       H        0.20500    0.62870    0.48500    1.000
    H8       H        0.06490    0.34140    0.38340    1.000
    H9       H        0.71130    0.82160    0.97790    1.000
    H10      H        0.23560    0.97200    0.00500    1.000
    H11      H        0.14670    0.12360    0.27370    1.000
    H12      H        0.71420    0.05080    0.58160    1.000
    C1       C        0.66220    0.54010    0.66700    1.000
    C2       C        0.83750    0.51820    0.58100    1.000
    C3       C        0.87710    0.42240    0.50910    1.000
    C4       C        0.96220    0.59450    0.56950    1.000
    C5       C        0.56390    0.25570    0.02030    1.000
    C6       C        0.53010    0.12400    0.00740    1.000
    C7       C        0.37400    0.10690    0.01260    1.000
    C8       C        0.65870    0.01710    0.99640    1.000
    C9       C        0.17170    0.78000    0.68430    1.000
    C10      C        0.08240    0.89410    0.59000    1.000
    C11      C        0.91320    0.92630    0.63480    1.000
    C12      C        0.17120    0.96930    0.45180    1.000
    C13      C        0.33780    0.45990    0.33300    1.000
    C14      C        0.16250    0.48180    0.41900    1.000
    C15      C        0.12290    0.57760    0.49090    1.000
    C16      C        0.03780    0.40550    0.43050    1.000
    C17      C        0.43610    0.74430    0.97970    1.000
    C18      C        0.46990    0.87600    0.99260    1.000
    C19      C        0.62600    0.89310    0.98740    1.000
    C20      C        0.34130    0.98290    0.00360    1.000
    C21      C        0.82830    0.22000    0.31570    1.000
    C22      C        0.91760    0.10590    0.41000    1.000
    C23      C        0.08680    0.07370    0.36520    1.000
    C24      C        0.82880    0.03070    0.54820    1.000
    O1       O        0.63160    0.61920    0.73960    1.000
    O2       O        0.54710    0.48010    0.66970    1.000
    O3       O        0.47980    0.37050    0.97630    1.000
    O4       O        0.66860    0.24510    0.07940    1.000
    O5       O        0.32690    0.75030    0.63640    1.000
    O6       O        0.09080    0.71100    0.80900    1.000
    O7       O        0.36840    0.38080    0.26040    1.000
    O8       O        0.45290    0.51990    0.33030    1.000
    O9       O        0.52020    0.62950    0.02370    1.000
    O10      O        0.33140    0.75490    0.92060    1.000
    O11      O        0.67310    0.24970    0.36360    1.000
    O12      O        0.90920    0.28900    0.19100    1.000
