# CIF file generated by openbabel 3.1.0, see https://openbabel.org
data_I
_chemical_name_common 'image0'
_cell_length_a 28.566
_cell_length_b 9.264
_cell_length_c 26.188
_cell_angle_alpha 90
_cell_angle_beta 117.254
_cell_angle_gamma 90
_space_group_name_H-M_alt 'P 1'
_space_group_name_Hall 'P 1'
loop_
    _symmetry_equiv_pos_as_xyz
    x,y,z
loop_
    _atom_site_label
    _atom_site_type_symbol
    _atom_site_fract_x
    _atom_site_fract_y
    _atom_site_fract_z
    _atom_site_occupancy
    Zn1      Zn       0.73303    0.13839    0.02823    1.000
    O1       O        0.71076    0.06570    0.94645    1.000
    O2       O        0.73669    0.22870    0.90275    1.000
    O3       O        0.30765    0.43430    0.55082    1.000
    O4       O        0.33171    0.26900    0.50559    1.000
    N1       N        0.70438    0.96380    0.05149    1.000
    C1       C        0.68972    0.02450    0.85030    1.000
    C2       C        0.70112    0.05250    0.80540    1.000
    H1       H        0.72390    0.12760    0.80850    1.000
    C3       C        0.65572    0.91310    0.84470    1.000
    H2       H        0.64810    0.89250    0.87490    1.000
    C4       C        0.67902    0.96980    0.75583    1.000
    H3       H        0.68750    0.98920    0.72620    1.000
    C5       C        0.63266    0.83150    0.79509    1.000
    H4       H        0.60920    0.75840    0.79190    1.000
    C6       C        0.64444    0.85840    0.74976    1.000
    C7       C        0.62085    0.77020    0.69600    1.000
    C8       C        0.64796    0.75080    0.66376    1.000
    H5       H        0.68140    0.79030    0.67650    1.000
    C9       C        0.62564    0.67310    0.61286    1.000
    H6       H        0.64360    0.66300    0.59100    1.000
    C10      C        0.57152    0.70740    0.67674    1.000
    H7       H        0.55330    0.71920    0.69810    1.000
    C11      C        0.57673    0.61110    0.59477    1.000
    H8       H        0.56210    0.55770    0.56100    1.000
    C12      C        0.54872    0.62700    0.62626    1.000
    C13      C        0.49552    0.56310    0.60503    1.000
    C14      C        0.48253    0.43630    0.57279    1.000
    H9       H        0.50790    0.39050    0.56560    1.000
    C15      C        0.45597    0.62730    0.61480    1.000
    H10      H        0.46350    0.71150    0.63640    1.000
    C16      C        0.43226    0.37700    0.55119    1.000
    H11      H        0.42440    0.29220    0.52990    1.000
    C17      C        0.40623    0.56870    0.59306    1.000
    H12      H        0.38060    0.61400    0.59990    1.000
    C18      C        0.39421    0.44270    0.56114    1.000
    C19      C        0.34104    0.37590    0.53907    1.000
    C20      C        0.72322    0.83150    0.05020    1.000
    H13      H        0.75180    0.82290    0.04240    1.000
    C21      C        0.66329    0.97440    0.06214    1.000
    H14      H        0.64980    0.06580    0.06220    1.000
    C22      C        0.70160    0.70940    0.05990    1.000
    H15      H        0.71550    0.61910    0.05900    1.000
    C23      C        0.65890    0.72200    0.07100    1.000
    H16      H        0.64340    0.63990    0.07700    1.000
    C24      C        0.63950    0.85710    0.07309    1.000
    C25      C        0.71326    0.11480    0.90395    1.000
    C26      C        0.59350    0.88130    0.08570    1.000
    H17      H        0.59160    0.84530    0.11780    1.000
    C27      C        0.55269    0.96780    0.04137    1.000
    H18      H        0.56920    0.05520    0.03600    1.000
    C28      C        0.52741    0.89290    0.98660    1.000
    H19      H        0.51060    0.80570    0.99070    1.000
    H20      H        0.55370    0.86530    0.97470    1.000
    C29      C        0.48694    0.98840    0.94167    1.000
    H21      H        0.50400    0.07330    0.93620    1.000
    H22      H        0.47020    0.93690    0.90540    1.000
    Zn2      Zn       0.23303    0.63839    0.02823    1.000
    O5       O        0.21076    0.56570    0.94645    1.000
    O6       O        0.23669    0.72870    0.90275    1.000
    O7       O        0.80765    0.93430    0.55082    1.000
    O8       O        0.83171    0.76900    0.50559    1.000
    N2       N        0.20438    0.46380    0.05149    1.000
    C30      C        0.18972    0.52450    0.85030    1.000
    C31      C        0.20112    0.55250    0.80540    1.000
    H23      H        0.22390    0.62760    0.80850    1.000
    C32      C        0.15572    0.41310    0.84470    1.000
    H24      H        0.14810    0.39250    0.87490    1.000
    C33      C        0.17902    0.46980    0.75583    1.000
    H25      H        0.18750    0.48920    0.72620    1.000
    C34      C        0.13266    0.33150    0.79509    1.000
    H26      H        0.10920    0.25840    0.79190    1.000
    C35      C        0.14444    0.35840    0.74976    1.000
    C36      C        0.12085    0.27020    0.69600    1.000
    C37      C        0.14796    0.25080    0.66376    1.000
    H27      H        0.18140    0.29030    0.67650    1.000
    C38      C        0.12564    0.17310    0.61286    1.000
    H28      H        0.14360    0.16300    0.59100    1.000
    C39      C        0.07152    0.20740    0.67674    1.000
    H29      H        0.05330    0.21920    0.69810    1.000
    C40      C        0.07673    0.11110    0.59477    1.000
    H30      H        0.06210    0.05770    0.56100    1.000
    C41      C        0.04872    0.12700    0.62626    1.000
    C42      C        0.99552    0.06310    0.60503    1.000
    C43      C        0.98253    0.93630    0.57279    1.000
    H31      H        0.00790    0.89050    0.56560    1.000
    C44      C        0.95597    0.12730    0.61480    1.000
    H32      H        0.96350    0.21150    0.63640    1.000
    C45      C        0.93226    0.87700    0.55119    1.000
    H33      H        0.92440    0.79220    0.52990    1.000
    C46      C        0.90623    0.06870    0.59306    1.000
    H34      H        0.88060    0.11400    0.59990    1.000
    C47      C        0.89421    0.94270    0.56114    1.000
    C48      C        0.84104    0.87590    0.53907    1.000
    C49      C        0.22322    0.33150    0.05020    1.000
    H35      H        0.25180    0.32290    0.04240    1.000
    C50      C        0.16329    0.47440    0.06214    1.000
    H36      H        0.14980    0.56580    0.06220    1.000
    C51      C        0.20160    0.20940    0.05990    1.000
    H37      H        0.21550    0.11910    0.05900    1.000
    C52      C        0.15890    0.22200    0.07100    1.000
    H38      H        0.14340    0.13990    0.07700    1.000
    C53      C        0.13950    0.35710    0.07309    1.000
    C54      C        0.21326    0.61480    0.90395    1.000
    C55      C        0.09350    0.38130    0.08570    1.000
    H39      H        0.09160    0.34530    0.11780    1.000
    C56      C        0.05269    0.46780    0.04137    1.000
    H40      H        0.06920    0.55520    0.03600    1.000
    C57      C        0.02741    0.39290    0.98660    1.000
    H41      H        0.01060    0.30570    0.99070    1.000
    H42      H        0.05370    0.36530    0.97470    1.000
    C58      C        0.98694    0.48840    0.94167    1.000
    H43      H        0.00400    0.57330    0.93620    1.000
    H44      H        0.97020    0.43690    0.90540    1.000
    Zn3      Zn       0.26697    0.13839    0.47177    1.000
    O9       O        0.28924    0.06570    0.55355    1.000
    O10      O        0.26331    0.22870    0.59725    1.000
    O11      O        0.69235    0.43430    0.94918    1.000
    O12      O        0.66829    0.26900    0.99441    1.000
    N3       N        0.29562    0.96380    0.44851    1.000
    C59      C        0.31028    0.02450    0.64970    1.000
    C60      C        0.29888    0.05250    0.69460    1.000
    H45      H        0.27610    0.12760    0.69150    1.000
    C61      C        0.34428    0.91310    0.65530    1.000
    H46      H        0.35190    0.89250    0.62510    1.000
    C62      C        0.32098    0.96980    0.74417    1.000
    H47      H        0.31250    0.98920    0.77380    1.000
    C63      C        0.36734    0.83150    0.70491    1.000
    H48      H        0.39080    0.75840    0.70810    1.000
    C64      C        0.35556    0.85840    0.75024    1.000
    C65      C        0.37915    0.77020    0.80400    1.000
    C66      C        0.35204    0.75080    0.83624    1.000
    H49      H        0.31860    0.79030    0.82350    1.000
    C67      C        0.37436    0.67310    0.88714    1.000
    H50      H        0.35640    0.66300    0.90900    1.000
    C68      C        0.42848    0.70740    0.82326    1.000
    H51      H        0.44670    0.71920    0.80190    1.000
    C69      C        0.42327    0.61110    0.90523    1.000
    H52      H        0.43790    0.55770    0.93900    1.000
    C70      C        0.45128    0.62700    0.87374    1.000
    C71      C        0.50448    0.56310    0.89497    1.000
    C72      C        0.51747    0.43630    0.92721    1.000
    H53      H        0.49210    0.39050    0.93440    1.000
    C73      C        0.54403    0.62730    0.88520    1.000
    H54      H        0.53650    0.71150    0.86360    1.000
    C74      C        0.56774    0.37700    0.94881    1.000
    H55      H        0.57560    0.29220    0.97010    1.000
    C75      C        0.59377    0.56870    0.90694    1.000
    H56      H        0.61940    0.61400    0.90010    1.000
    C76      C        0.60579    0.44270    0.93886    1.000
    C77      C        0.65896    0.37590    0.96093    1.000
    C78      C        0.27678    0.83150    0.44980    1.000
    H57      H        0.24820    0.82290    0.45760    1.000
    C79      C        0.33671    0.97440    0.43786    1.000
    H58      H        0.35020    0.06580    0.43780    1.000
    C80      C        0.29840    0.70940    0.44010    1.000
    H59      H        0.28450    0.61910    0.44100    1.000
    C81      C        0.34110    0.72200    0.42900    1.000
    H60      H        0.35660    0.63990    0.42300    1.000
    C82      C        0.36050    0.85710    0.42691    1.000
    C83      C        0.28674    0.11480    0.59605    1.000
    C84      C        0.40650    0.88130    0.41430    1.000
    H61      H        0.40840    0.84530    0.38220    1.000
    C85      C        0.44731    0.96780    0.45863    1.000
    H62      H        0.43080    0.05520    0.46400    1.000
    C86      C        0.47259    0.89290    0.51340    1.000
    H63      H        0.48940    0.80570    0.50930    1.000
    H64      H        0.44630    0.86530    0.52530    1.000
    C87      C        0.51306    0.98840    0.55833    1.000
    H65      H        0.49600    0.07330    0.56380    1.000
    H66      H        0.52980    0.93690    0.59460    1.000
    Zn4      Zn       0.76698    0.63839    0.47177    1.000
    O13      O        0.78924    0.56570    0.55355    1.000
    O14      O        0.76331    0.72870    0.59725    1.000
    O15      O        0.19235    0.93430    0.94918    1.000
    O16      O        0.16829    0.76900    0.99441    1.000
    N4       N        0.79562    0.46380    0.44851    1.000
    C88      C        0.81028    0.52450    0.64970    1.000
    C89      C        0.79888    0.55250    0.69460    1.000
    H67      H        0.77610    0.62760    0.69150    1.000
    C90      C        0.84428    0.41310    0.65530    1.000
    H68      H        0.85190    0.39250    0.62510    1.000
    C91      C        0.82098    0.46980    0.74417    1.000
    H69      H        0.81250    0.48920    0.77380    1.000
    C92      C        0.86734    0.33150    0.70491    1.000
    H70      H        0.89080    0.25840    0.70810    1.000
    C93      C        0.85556    0.35840    0.75024    1.000
    C94      C        0.87915    0.27020    0.80400    1.000
    C95      C        0.85204    0.25080    0.83624    1.000
    H71      H        0.81860    0.29030    0.82350    1.000
    C96      C        0.87436    0.17310    0.88714    1.000
    H72      H        0.85640    0.16300    0.90900    1.000
    C97      C        0.92848    0.20740    0.82326    1.000
    H73      H        0.94670    0.21920    0.80190    1.000
    C98      C        0.92327    0.11110    0.90523    1.000
    H74      H        0.93790    0.05770    0.93900    1.000
    C99      C        0.95128    0.12700    0.87374    1.000
    C100     C        0.00448    0.06310    0.89497    1.000
    C101     C        0.01747    0.93630    0.92721    1.000
    H75      H        0.99210    0.89050    0.93440    1.000
    C102     C        0.04403    0.12730    0.88520    1.000
    H76      H        0.03650    0.21150    0.86360    1.000
    C103     C        0.06774    0.87700    0.94881    1.000
    H77      H        0.07560    0.79220    0.97010    1.000
    C104     C        0.09377    0.06870    0.90694    1.000
    H78      H        0.11940    0.11400    0.90010    1.000
    C105     C        0.10579    0.94270    0.93886    1.000
    C106     C        0.15896    0.87590    0.96093    1.000
    C107     C        0.77678    0.33150    0.44980    1.000
    H79      H        0.74820    0.32290    0.45760    1.000
    C108     C        0.83671    0.47440    0.43786    1.000
    H80      H        0.85020    0.56580    0.43780    1.000
    C109     C        0.79840    0.20940    0.44010    1.000
    H81      H        0.78450    0.11910    0.44100    1.000
    C110     C        0.84110    0.22200    0.42900    1.000
    H82      H        0.85660    0.13990    0.42300    1.000
    C111     C        0.86050    0.35710    0.42691    1.000
    C112     C        0.78674    0.61480    0.59605    1.000
    C113     C        0.90650    0.38130    0.41430    1.000
    H83      H        0.90840    0.34530    0.38220    1.000
    C114     C        0.94731    0.46780    0.45863    1.000
    H84      H        0.93080    0.55520    0.46400    1.000
    C115     C        0.97259    0.39290    0.51340    1.000
    H85      H        0.98940    0.30570    0.50930    1.000
    H86      H        0.94630    0.36530    0.52530    1.000
    C116     C        0.01306    0.48840    0.55833    1.000
    H87      H        0.99600    0.57330    0.56380    1.000
    H88      H        0.02980    0.43690    0.59460    1.000
    Zn5      Zn       0.26697    0.86161    0.97177    1.000
    O17      O        0.28924    0.93430    0.05355    1.000
    O18      O        0.26331    0.77130    0.09725    1.000
    O19      O        0.69235    0.56570    0.44918    1.000
    O20      O        0.66829    0.73100    0.49441    1.000
    N5       N        0.29562    0.03620    0.94851    1.000
    C117     C        0.31028    0.97550    0.14970    1.000
    C118     C        0.29888    0.94750    0.19460    1.000
    H89      H        0.27610    0.87240    0.19150    1.000
    C119     C        0.34428    0.08690    0.15530    1.000
    H90      H        0.35190    0.10750    0.12510    1.000
    C120     C        0.32098    0.03020    0.24417    1.000
    H91      H        0.31250    0.01080    0.27380    1.000
    C121     C        0.36734    0.16850    0.20491    1.000
    H92      H        0.39080    0.24160    0.20810    1.000
    C122     C        0.35556    0.14160    0.25024    1.000
    C123     C        0.37915    0.22980    0.30400    1.000
    C124     C        0.35204    0.24920    0.33624    1.000
    H93      H        0.31860    0.20970    0.32350    1.000
    C125     C        0.37436    0.32690    0.38714    1.000
    H94      H        0.35640    0.33700    0.40900    1.000
    C126     C        0.42848    0.29260    0.32326    1.000
    H95      H        0.44670    0.28080    0.30190    1.000
    C127     C        0.42327    0.38890    0.40523    1.000
    H96      H        0.43790    0.44230    0.43900    1.000
    C128     C        0.45128    0.37300    0.37374    1.000
    C129     C        0.50448    0.43690    0.39497    1.000
    C130     C        0.51747    0.56370    0.42721    1.000
    H97      H        0.49210    0.60950    0.43440    1.000
    C131     C        0.54403    0.37270    0.38520    1.000
    H98      H        0.53650    0.28850    0.36360    1.000
    C132     C        0.56774    0.62300    0.44881    1.000
    H99      H        0.57560    0.70780    0.47010    1.000
    C133     C        0.59377    0.43130    0.40694    1.000
    H100     H        0.61940    0.38600    0.40010    1.000
    C134     C        0.60579    0.55730    0.43886    1.000
    C135     C        0.65896    0.62410    0.46093    1.000
    C136     C        0.27678    0.16850    0.94980    1.000
    H101     H        0.24820    0.17710    0.95760    1.000
    C137     C        0.33671    0.02560    0.93786    1.000
    H102     H        0.35020    0.93420    0.93780    1.000
    C138     C        0.29840    0.29060    0.94010    1.000
    H103     H        0.28450    0.38090    0.94100    1.000
    C139     C        0.34110    0.27800    0.92900    1.000
    H104     H        0.35660    0.36010    0.92300    1.000
    C140     C        0.36050    0.14290    0.92691    1.000
    C141     C        0.28674    0.88520    0.09605    1.000
    C142     C        0.40650    0.11870    0.91430    1.000
    H105     H        0.40840    0.15470    0.88220    1.000
    C143     C        0.44731    0.03220    0.95863    1.000
    H106     H        0.43080    0.94480    0.96400    1.000
    C144     C        0.47259    0.10710    0.01340    1.000
    H107     H        0.48940    0.19430    0.00930    1.000
    H108     H        0.44630    0.13470    0.02530    1.000
    C145     C        0.51306    0.01160    0.05833    1.000
    H109     H        0.49600    0.92670    0.06380    1.000
    H110     H        0.52980    0.06310    0.09460    1.000
    Zn6      Zn       0.76698    0.36161    0.97177    1.000
    O21      O        0.78924    0.43430    0.05355    1.000
    O22      O        0.76331    0.27130    0.09725    1.000
    O23      O        0.19235    0.06570    0.44918    1.000
    O24      O        0.16829    0.23100    0.49441    1.000
    N6       N        0.79562    0.53620    0.94851    1.000
    C146     C        0.81028    0.47550    0.14970    1.000
    C147     C        0.79888    0.44750    0.19460    1.000
    H111     H        0.77610    0.37240    0.19150    1.000
    C148     C        0.84428    0.58690    0.15530    1.000
    H112     H        0.85190    0.60750    0.12510    1.000
    C149     C        0.82098    0.53020    0.24417    1.000
    H113     H        0.81250    0.51080    0.27380    1.000
    C150     C        0.86734    0.66850    0.20491    1.000
    H114     H        0.89080    0.74160    0.20810    1.000
    C151     C        0.85556    0.64160    0.25024    1.000
    C152     C        0.87915    0.72980    0.30400    1.000
    C153     C        0.85204    0.74920    0.33624    1.000
    H115     H        0.81860    0.70970    0.32350    1.000
    C154     C        0.87436    0.82690    0.38714    1.000
    H116     H        0.85640    0.83700    0.40900    1.000
    C155     C        0.92848    0.79260    0.32326    1.000
    H117     H        0.94670    0.78080    0.30190    1.000
    C156     C        0.92327    0.88890    0.40523    1.000
    H118     H        0.93790    0.94230    0.43900    1.000
    C157     C        0.95128    0.87300    0.37374    1.000
    C158     C        0.00448    0.93690    0.39497    1.000
    C159     C        0.01747    0.06370    0.42721    1.000
    H119     H        0.99210    0.10950    0.43440    1.000
    C160     C        0.04403    0.87270    0.38520    1.000
    H120     H        0.03650    0.78850    0.36360    1.000
    C161     C        0.06774    0.12300    0.44881    1.000
    H121     H        0.07560    0.20780    0.47010    1.000
    C162     C        0.09377    0.93130    0.40694    1.000
    H122     H        0.11940    0.88600    0.40010    1.000
    C163     C        0.10579    0.05730    0.43886    1.000
    C164     C        0.15896    0.12410    0.46093    1.000
    C165     C        0.77678    0.66850    0.94980    1.000
    H123     H        0.74820    0.67710    0.95760    1.000
    C166     C        0.83671    0.52560    0.93786    1.000
    H124     H        0.85020    0.43420    0.93780    1.000
    C167     C        0.79840    0.79060    0.94010    1.000
    H125     H        0.78450    0.88090    0.94100    1.000
    C168     C        0.84110    0.77800    0.92900    1.000
    H126     H        0.85660    0.86010    0.92300    1.000
    C169     C        0.86050    0.64290    0.92691    1.000
    C170     C        0.78674    0.38520    0.09605    1.000
    C171     C        0.90650    0.61870    0.91430    1.000
    H127     H        0.90840    0.65470    0.88220    1.000
    C172     C        0.94731    0.53220    0.95863    1.000
    H128     H        0.93080    0.44480    0.96400    1.000
    C173     C        0.97259    0.60710    0.01340    1.000
    H129     H        0.98940    0.69430    0.00930    1.000
    H130     H        0.94630    0.63470    0.02530    1.000
    C174     C        0.01306    0.51160    0.05833    1.000
    H131     H        0.99600    0.42670    0.06380    1.000
    H132     H        0.02980    0.56310    0.09460    1.000
    Zn7      Zn       0.73303    0.86161    0.52823    1.000
    O25      O        0.71076    0.93430    0.44645    1.000
    O26      O        0.73669    0.77130    0.40275    1.000
    O27      O        0.30765    0.56570    0.05082    1.000
    O28      O        0.33171    0.73100    0.00559    1.000
    N7       N        0.70438    0.03620    0.55149    1.000
    C175     C        0.68972    0.97550    0.35030    1.000
    C176     C        0.70112    0.94750    0.30540    1.000
    H133     H        0.72390    0.87240    0.30850    1.000
    C177     C        0.65572    0.08690    0.34470    1.000
    H134     H        0.64810    0.10750    0.37490    1.000
    C178     C        0.67902    0.03020    0.25583    1.000
    H135     H        0.68750    0.01080    0.22620    1.000
    C179     C        0.63266    0.16850    0.29509    1.000
    H136     H        0.60920    0.24160    0.29190    1.000
    C180     C        0.64444    0.14160    0.24976    1.000
    C181     C        0.62085    0.22980    0.19600    1.000
    C182     C        0.64796    0.24920    0.16376    1.000
    H137     H        0.68140    0.20970    0.17650    1.000
    C183     C        0.62564    0.32690    0.11286    1.000
    H138     H        0.64360    0.33700    0.09100    1.000
    C184     C        0.57152    0.29260    0.17674    1.000
    H139     H        0.55330    0.28080    0.19810    1.000
    C185     C        0.57673    0.38890    0.09477    1.000
    H140     H        0.56210    0.44230    0.06100    1.000
    C186     C        0.54872    0.37300    0.12626    1.000
    C187     C        0.49552    0.43690    0.10503    1.000
    C188     C        0.48253    0.56370    0.07279    1.000
    H141     H        0.50790    0.60950    0.06560    1.000
    C189     C        0.45597    0.37270    0.11480    1.000
    H142     H        0.46350    0.28850    0.13640    1.000
    C190     C        0.43226    0.62300    0.05119    1.000
    H143     H        0.42440    0.70780    0.02990    1.000
    C191     C        0.40623    0.43130    0.09306    1.000
    H144     H        0.38060    0.38600    0.09990    1.000
    C192     C        0.39421    0.55730    0.06114    1.000
    C193     C        0.34104    0.62410    0.03907    1.000
    C194     C        0.72322    0.16850    0.55020    1.000
    H145     H        0.75180    0.17710    0.54240    1.000
    C195     C        0.66329    0.02560    0.56214    1.000
    H146     H        0.64980    0.93420    0.56220    1.000
    C196     C        0.70160    0.29060    0.55990    1.000
    H147     H        0.71550    0.38090    0.55900    1.000
    C197     C        0.65890    0.27800    0.57100    1.000
    H148     H        0.64340    0.36010    0.57700    1.000
    C198     C        0.63950    0.14290    0.57309    1.000
    C199     C        0.71326    0.88520    0.40395    1.000
    C200     C        0.59350    0.11870    0.58570    1.000
    H149     H        0.59160    0.15470    0.61780    1.000
    C201     C        0.55269    0.03220    0.54137    1.000
    H150     H        0.56920    0.94480    0.53600    1.000
    C202     C        0.52741    0.10710    0.48660    1.000
    H151     H        0.51060    0.19430    0.49070    1.000
    H152     H        0.55370    0.13470    0.47470    1.000
    C203     C        0.48694    0.01160    0.44167    1.000
    H153     H        0.50400    0.92670    0.43620    1.000
    H154     H        0.47020    0.06310    0.40540    1.000
    Zn8      Zn       0.23303    0.36161    0.52823    1.000
    O29      O        0.21076    0.43430    0.44645    1.000
    O30      O        0.23669    0.27130    0.40275    1.000
    O31      O        0.80765    0.06570    0.05082    1.000
    O32      O        0.83171    0.23100    0.00559    1.000
    N8       N        0.20438    0.53620    0.55149    1.000
    C204     C        0.18972    0.47550    0.35030    1.000
    C205     C        0.20112    0.44750    0.30540    1.000
    H155     H        0.22390    0.37240    0.30850    1.000
    C206     C        0.15572    0.58690    0.34470    1.000
    H156     H        0.14810    0.60750    0.37490    1.000
    C207     C        0.17902    0.53020    0.25583    1.000
    H157     H        0.18750    0.51080    0.22620    1.000
    C208     C        0.13266    0.66850    0.29509    1.000
    H158     H        0.10920    0.74160    0.29190    1.000
    C209     C        0.14444    0.64160    0.24976    1.000
    C210     C        0.12085    0.72980    0.19600    1.000
    C211     C        0.14796    0.74920    0.16376    1.000
    H159     H        0.18140    0.70970    0.17650    1.000
    C212     C        0.12564    0.82690    0.11286    1.000
    H160     H        0.14360    0.83700    0.09100    1.000
    C213     C        0.07152    0.79260    0.17674    1.000
    H161     H        0.05330    0.78080    0.19810    1.000
    C214     C        0.07673    0.88890    0.09477    1.000
    H162     H        0.06210    0.94230    0.06100    1.000
    C215     C        0.04872    0.87300    0.12626    1.000
    C216     C        0.99552    0.93690    0.10503    1.000
    C217     C        0.98253    0.06370    0.07279    1.000
    H163     H        0.00790    0.10950    0.06560    1.000
    C218     C        0.95597    0.87270    0.11480    1.000
    H164     H        0.96350    0.78850    0.13640    1.000
    C219     C        0.93226    0.12300    0.05119    1.000
    H165     H        0.92440    0.20780    0.02990    1.000
    C220     C        0.90623    0.93130    0.09306    1.000
    H166     H        0.88060    0.88600    0.09990    1.000
    C221     C        0.89421    0.05730    0.06114    1.000
    C222     C        0.84104    0.12410    0.03907    1.000
    C223     C        0.22322    0.66850    0.55020    1.000
    H167     H        0.25180    0.67710    0.54240    1.000
    C224     C        0.16329    0.52560    0.56214    1.000
    H168     H        0.14980    0.43420    0.56220    1.000
    C225     C        0.20160    0.79060    0.55990    1.000
    H169     H        0.21550    0.88090    0.55900    1.000
    C226     C        0.15890    0.77800    0.57100    1.000
    H170     H        0.14340    0.86010    0.57700    1.000
    C227     C        0.13950    0.64290    0.57309    1.000
    C228     C        0.21326    0.38520    0.40395    1.000
    C229     C        0.09350    0.61870    0.58570    1.000
    H171     H        0.09160    0.65470    0.61780    1.000
    C230     C        0.05269    0.53220    0.54137    1.000
    H172     H        0.06920    0.44480    0.53600    1.000
    C231     C        0.02741    0.60710    0.48660    1.000
    H173     H        0.01060    0.69430    0.49070    1.000
    H174     H        0.05370    0.63470    0.47470    1.000
    C232     C        0.98694    0.51160    0.44167    1.000
    H175     H        0.00400    0.42670    0.43620    1.000
    H176     H        0.97020    0.56310    0.40540    1.000
