# CIF file generated by openbabel 3.1.0, see https://openbabel.org
data_I
_chemical_name_common 'image0'
_cell_length_a 15.147
_cell_length_b 6.6763
_cell_length_c 14.375
_cell_angle_alpha 90
_cell_angle_beta 90
_cell_angle_gamma 90
_space_group_name_H-M_alt 'P 1'
_space_group_name_Hall 'P 1'
loop_
    _symmetry_equiv_pos_as_xyz
    x,y,z
loop_
    _atom_site_label
    _atom_site_type_symbol
    _atom_site_fract_x
    _atom_site_fract_y
    _atom_site_fract_z
    _atom_site_occupancy
    O1       O        0.85190    0.08440    0.63700    1.000
    O2       O        0.70330    0.58400    0.74180    1.000
    O3       O        0.64810    0.91560    0.13700    1.000
    O4       O        0.79670    0.41600    0.24180    1.000
    O5       O        0.14810    0.58440    0.36300    1.000
    O6       O        0.29670    0.08400    0.25820    1.000
    O7       O        0.35190    0.41560    0.86300    1.000
    O8       O        0.20330    0.91600    0.75820    1.000
    O9       O        0.14810    0.91560    0.36300    1.000
    O10      O        0.29670    0.41600    0.25820    1.000
    O11      O        0.35190    0.08440    0.86300    1.000
    O12      O        0.20330    0.58400    0.75820    1.000
    O13      O        0.85190    0.41560    0.63700    1.000
    O14      O        0.70330    0.91600    0.74180    1.000
    O15      O        0.64810    0.58440    0.13700    1.000
    O16      O        0.79670    0.08400    0.24180    1.000
    Tb1      Tb       0.80031    0.75000    0.62023    1.000
    O17      O        0.84730    0.75000    0.46330    1.000
    O18      O        0.88940    0.75000    0.75720    1.000
    N1       N        0.96470    0.75000    0.59480    1.000
    C1       C        0.92750    0.75000    0.43380    1.000
    Na1      Na       0.73460    0.75000    0.31000    1.000
    C2       C        0.96910    0.75000    0.75870    1.000
    C3       C        0.99640    0.75000    0.50820    1.000
    C4       C        0.01790    0.75000    0.66700    1.000
    O19      O        0.94830    0.75000    0.35250    1.000
    O20      O        0.01850    0.75000    0.83000    1.000
    C5       C        0.08720    0.75000    0.49400    1.000
    C6       C        0.10660    0.75000    0.65270    1.000
    N2       N        0.14270    0.75000    0.56600    1.000
    C7       C        0.12960    0.75000    0.39940    1.000
    C8       C        0.17670    0.75000    0.72980    1.000
    Tb2      Tb       0.69969    0.25000    0.12023    1.000
    O21      O        0.65270    0.25000    0.96330    1.000
    O22      O        0.61060    0.25000    0.25720    1.000
    N3       N        0.53530    0.25000    0.09480    1.000
    C9       C        0.57250    0.25000    0.93380    1.000
    Na2      Na       0.76540    0.25000    0.81000    1.000
    C10      C        0.53090    0.25000    0.25870    1.000
    C11      C        0.50360    0.25000    0.00820    1.000
    C12      C        0.48210    0.25000    0.16700    1.000
    O23      O        0.55170    0.25000    0.85250    1.000
    O24      O        0.48150    0.25000    0.33000    1.000
    C13      C        0.41280    0.25000    0.99400    1.000
    C14      C        0.39340    0.25000    0.15270    1.000
    N4       N        0.35730    0.25000    0.06600    1.000
    C15      C        0.37040    0.25000    0.89940    1.000
    C16      C        0.32330    0.25000    0.22980    1.000
    Tb3      Tb       0.19969    0.25000    0.37977    1.000
    O25      O        0.15270    0.25000    0.53670    1.000
    O26      O        0.11060    0.25000    0.24280    1.000
    N5       N        0.03530    0.25000    0.40520    1.000
    C17      C        0.07250    0.25000    0.56620    1.000
    Na3      Na       0.26540    0.25000    0.69000    1.000
    C18      C        0.03090    0.25000    0.24130    1.000
    C19      C        0.00360    0.25000    0.49180    1.000
    C20      C        0.98210    0.25000    0.33300    1.000
    O27      O        0.05170    0.25000    0.64750    1.000
    O28      O        0.98150    0.25000    0.17000    1.000
    C21      C        0.91280    0.25000    0.50600    1.000
    C22      C        0.89340    0.25000    0.34730    1.000
    N6       N        0.85730    0.25000    0.43400    1.000
    C23      C        0.87040    0.25000    0.60060    1.000
    C24      C        0.82330    0.25000    0.27020    1.000
    Tb4      Tb       0.30031    0.75000    0.87977    1.000
    O29      O        0.34730    0.75000    0.03670    1.000
    O30      O        0.38940    0.75000    0.74280    1.000
    N7       N        0.46470    0.75000    0.90520    1.000
    C25      C        0.42750    0.75000    0.06620    1.000
    Na4      Na       0.23460    0.75000    0.19000    1.000
    C26      C        0.46910    0.75000    0.74130    1.000
    C27      C        0.49640    0.75000    0.99180    1.000
    C28      C        0.51790    0.75000    0.83300    1.000
    O31      O        0.44830    0.75000    0.14750    1.000
    O32      O        0.51850    0.75000    0.67000    1.000
    C29      C        0.58720    0.75000    0.00600    1.000
    C30      C        0.60660    0.75000    0.84730    1.000
    N8       N        0.64270    0.75000    0.93400    1.000
    C31      C        0.62960    0.75000    0.10060    1.000
    C32      C        0.67670    0.75000    0.77020    1.000
