# CIF file generated by openbabel 3.1.0, see https://openbabel.org
data_I
_chemical_name_common 'image0'
_cell_length_a 27.246
_cell_length_b 10.443
_cell_length_c 9.361
_cell_angle_alpha 90
_cell_angle_beta 101.743
_cell_angle_gamma 90
_space_group_name_H-M_alt 'P 1'
_space_group_name_Hall 'P 1'
loop_
    _symmetry_equiv_pos_as_xyz
    x,y,z
loop_
    _atom_site_label
    _atom_site_type_symbol
    _atom_site_fract_x
    _atom_site_fract_y
    _atom_site_fract_z
    _atom_site_occupancy
    N1       N        0.14628    0.27240    0.57310    1.000
    C1       C        0.14984    0.16510    0.57860    1.000
    N2       N        0.64628    0.77240    0.57310    1.000
    C2       C        0.64984    0.66510    0.57860    1.000
    N3       N        0.85372    0.27240    0.42690    1.000
    C3       C        0.85016    0.16510    0.42140    1.000
    N4       N        0.35372    0.77240    0.42690    1.000
    C4       C        0.35016    0.66510    0.42140    1.000
    N5       N        0.85372    0.72760    0.42690    1.000
    C5       C        0.85016    0.83490    0.42140    1.000
    N6       N        0.35372    0.22760    0.42690    1.000
    C6       C        0.35016    0.33490    0.42140    1.000
    N7       N        0.14628    0.72760    0.57310    1.000
    C7       C        0.14984    0.83490    0.57860    1.000
    N8       N        0.64628    0.22760    0.57310    1.000
    C8       C        0.64984    0.33490    0.57860    1.000
    Cd1      Cd       0.00000    0.00000    0.00000    1.000
    Cd2      Cd       0.50000    0.50000    0.00000    1.000
    Cd3      Cd       0.14004    0.50000    0.55635    1.000
    Cu1      Cu       0.04689    0.50000    0.00484    1.000
    N9       N        0.09930    0.50000    0.32990    1.000
    N10      N        0.10180    0.50000    0.74580    1.000
    C9       C        0.08290    0.50000    0.20980    1.000
    C10      C        0.08080    0.50000    0.83910    1.000
    Cd4      Cd       0.64004    0.00000    0.55635    1.000
    Cu2      Cu       0.54689    0.00000    0.00484    1.000
    N11      N        0.59930    0.00000    0.32990    1.000
    N12      N        0.60180    0.00000    0.74580    1.000
    C11      C        0.58290    0.00000    0.20980    1.000
    C12      C        0.58080    0.00000    0.83910    1.000
    Cd5      Cd       0.85996    0.50000    0.44365    1.000
    Cu3      Cu       0.95311    0.50000    0.99516    1.000
    N13      N        0.90070    0.50000    0.67010    1.000
    N14      N        0.89820    0.50000    0.25420    1.000
    C13      C        0.91710    0.50000    0.79020    1.000
    C14      C        0.91920    0.50000    0.16090    1.000
    Cd6      Cd       0.35996    0.00000    0.44365    1.000
    Cu4      Cu       0.45311    0.00000    0.99516    1.000
    N15      N        0.40070    0.00000    0.67010    1.000
    N16      N        0.39820    0.00000    0.25420    1.000
    C15      C        0.41710    0.00000    0.79020    1.000
    C16      C        0.41920    0.00000    0.16090    1.000
    Cu5      Cu       0.16489    0.00000    0.44574    1.000
    Cu6      Cu       0.14867    0.00000    0.70516    1.000
    N17      N        0.27780    0.00000    0.43750    1.000
    N18      N        0.24110    0.00000    0.96440    1.000
    N19      N        0.07650    0.00000    0.17900    1.000
    N20      N        0.05040    0.00000    0.82450    1.000
    C17      C        0.23580    0.00000    0.44480    1.000
    C18      C        0.20830    0.00000    0.86670    1.000
    C19      C        0.11140    0.00000    0.27240    1.000
    C20      C        0.08500    0.00000    0.77430    1.000
    Cu7      Cu       0.66489    0.50000    0.44574    1.000
    Cu8      Cu       0.64867    0.50000    0.70516    1.000
    N21      N        0.77780    0.50000    0.43750    1.000
    N22      N        0.74110    0.50000    0.96440    1.000
    N23      N        0.57650    0.50000    0.17900    1.000
    N24      N        0.55040    0.50000    0.82450    1.000
    C21      C        0.73580    0.50000    0.44480    1.000
    C22      C        0.70830    0.50000    0.86670    1.000
    C23      C        0.61140    0.50000    0.27240    1.000
    C24      C        0.58500    0.50000    0.77430    1.000
    Cu9      Cu       0.83511    0.00000    0.55426    1.000
    Cu10     Cu       0.85133    0.00000    0.29484    1.000
    N25      N        0.72220    0.00000    0.56250    1.000
    N26      N        0.75890    0.00000    0.03560    1.000
    N27      N        0.92350    0.00000    0.82100    1.000
    N28      N        0.94960    0.00000    0.17550    1.000
    C25      C        0.76420    0.00000    0.55520    1.000
    C26      C        0.79170    0.00000    0.13330    1.000
    C27      C        0.88860    0.00000    0.72760    1.000
    C28      C        0.91500    0.00000    0.22570    1.000
    Cu11     Cu       0.33511    0.50000    0.55426    1.000
    Cu12     Cu       0.35133    0.50000    0.29484    1.000
    N29      N        0.22220    0.50000    0.56250    1.000
    N30      N        0.25890    0.50000    0.03560    1.000
    N31      N        0.42350    0.50000    0.82100    1.000
    N32      N        0.44960    0.50000    0.17550    1.000
    C29      C        0.26420    0.50000    0.55520    1.000
    C30      C        0.29170    0.50000    0.13330    1.000
    C31      C        0.38860    0.50000    0.72760    1.000
    C32      C        0.41500    0.50000    0.22570    1.000
    N33      N        0.00000    0.22320    0.00000    1.000
    C33      C        0.00000    0.33250    0.00000    1.000
    N34      N        0.50000    0.72320    0.00000    1.000
    C34      C        0.50000    0.83250    0.00000    1.000
    N35      N        0.00000    0.77680    0.00000    1.000
    C35      C        0.00000    0.66750    0.00000    1.000
    N36      N        0.50000    0.27680    0.00000    1.000
    C36      C        0.50000    0.16750    0.00000    1.000
