# CIF file generated by openbabel 3.1.0, see https://openbabel.org
data_I
_chemical_name_common 'image0'
_cell_length_a 32.0791
_cell_length_b 11.9048
_cell_length_c 37.7384
_cell_angle_alpha 90
_cell_angle_beta 99.269
_cell_angle_gamma 90
_space_group_name_H-M_alt 'P 1'
_space_group_name_Hall 'P 1'
loop_
    _symmetry_equiv_pos_as_xyz
    x,y,z
loop_
    _atom_site_label
    _atom_site_type_symbol
    _atom_site_fract_x
    _atom_site_fract_y
    _atom_site_fract_z
    _atom_site_occupancy
    Bi1      Bi       0.24682    0.31581    0.30493    1.000
    C1       C        0.00540    0.84440    0.04282    1.000
    C2       C        0.96580    0.81100    0.04341    1.000
    C3       C        0.09720    0.93050    0.11265    1.000
    H1       H        0.12480    0.90270    0.12120    1.000
    C4       C        0.07160    0.87500    0.08532    1.000
    H2       H        0.08220    0.81000    0.07520    1.000
    C5       C        0.03093    0.91110    0.07220    1.000
    C6       C        0.01765    0.00790    0.08723    1.000
    H3       H        0.99010    0.03580    0.07860    1.000
    C7       C        0.04265    0.06520    0.11405    1.000
    H4       H        0.03240    0.13200    0.12340    1.000
    C8       C        0.08298    0.02670    0.12775    1.000
    C9       C        0.11016    0.08430    0.15757    1.000
    C10      C        0.10490    0.19980    0.16524    1.000
    H5       H        0.08370    0.24250    0.15060    1.000
    C11      C        0.13007    0.24980    0.19343    1.000
    H6       H        0.12590    0.32710    0.19820    1.000
    C12      C        0.16146    0.19100    0.21531    1.000
    C13      C        0.16750    0.07820    0.20805    1.000
    H7       H        0.18920    0.03720    0.22270    1.000
    C14      C        0.14240    0.02540    0.17990    1.000
    H8       H        0.14680    0.94810    0.17550    1.000
    C15      C        0.18801    0.24550    0.24639    1.000
    O1       O        0.21919    0.18980    0.26345    1.000
    O2       O        0.17970    0.34290    0.25607    1.000
    C16      C        0.06070    0.68150    0.97659    1.000
    H9       H        0.06460    0.60580    0.96980    1.000
    C17      C        0.03549    0.70470    0.00230    1.000
    H10      H        0.02210    0.64470    0.01270    1.000
    C18      C        0.02945    0.81370    0.01312    1.000
    C19      C        0.04977    0.89960    0.99723    1.000
    H11      H        0.04670    0.97520    0.00450    1.000
    C20      C        0.07409    0.87660    0.97141    1.000
    H12      H        0.08700    0.93660    0.96070    1.000
    C21      C        0.08018    0.76710    0.96069    1.000
    C22      C        0.10841    0.74430    0.93364    1.000
    C23      C        0.14040    0.66510    0.94055    1.000
    H13      H        0.14290    0.62040    0.96170    1.000
    C24      C        0.16870    0.65080    0.91663    1.000
    H14      H        0.19110    0.59810    0.92170    1.000
    C25      C        0.16425    0.71360    0.88536    1.000
    C26      C        0.13190    0.78880    0.87783    1.000
    H15      H        0.12840    0.83010    0.85600    1.000
    C27      C        0.10400    0.80500    0.90194    1.000
    H16      H        0.08180    0.85820    0.89670    1.000
    C28      C        0.19598    0.69960    0.86018    1.000
    O3       O        0.18944    0.74840    0.83032    1.000
    O4       O        0.22821    0.64090    0.86965    1.000
    C29      C        0.89270    0.59520    0.99357    1.000
    H17      H        0.87610    0.53430    0.99970    1.000
    C30      C        0.91570    0.65790    0.02025    1.000
    H18      H        0.91490    0.63950    0.04460    1.000
    C31      C        0.94031    0.74780    0.01238    1.000
    C32      C        0.93914    0.77550    0.97668    1.000
    H19      H        0.95460    0.83870    0.97060    1.000
    C33      C        0.91580    0.71270    0.94963    1.000
    H20      H        0.91530    0.73370    0.92530    1.000
    C34      C        0.89320    0.61980    0.95761    1.000
    C35      C        0.87013    0.54330    0.92937    1.000
    C36      C        0.86990    0.42870    0.93579    1.000
    H21      H        0.88440    0.40000    0.95790    1.000
    C37      C        0.84910    0.35560    0.91064    1.000
    H22      H        0.84990    0.27710    0.91530    1.000
    C38      C        0.82704    0.39630    0.87828    1.000
    C39      C        0.82710    0.51060    0.87189    1.000
    H23      H        0.81230    0.53920    0.84990    1.000
    C40      C        0.84860    0.58450    0.89707    1.000
    H24      H        0.84840    0.66280    0.89220    1.000
    C41      C        0.80424    0.31340    0.85284    1.000
    O5       O        0.77451    0.35030    0.82851    1.000
    O6       O        0.81351    0.21170    0.85521    1.000
    C42      C        0.94192    0.81740    0.13902    1.000
    H25      H        0.95620    0.80310    0.16270    1.000
    C43      C        0.96362    0.80530    0.11007    1.000
    H26      H        0.99210    0.78000    0.11420    1.000
    C44      C        0.94429    0.82960    0.07532    1.000
    C45      C        0.90225    0.86090    0.07000    1.000
    H27      H        0.88820    0.87520    0.04630    1.000
    C46      C        0.88000    0.87200    0.09885    1.000
    H28      H        0.85120    0.89470    0.09450    1.000
    C47      C        0.89970    0.85020    0.13391    1.000
    C48      C        0.87560    0.85500    0.16413    1.000
    C49      C        0.84250    0.93010    0.16404    1.000
    H29      H        0.83670    0.98330    0.14510    1.000
    C50      C        0.81760    0.92920    0.19097    1.000
    H30      H        0.79560    0.98260    0.19070    1.000
    C51      C        0.82512    0.85020    0.21826    1.000
    C52      C        0.85897    0.77690    0.21919    1.000
    H31      H        0.86540    0.72550    0.23860    1.000
    C53      C        0.88350    0.77820    0.19204    1.000
    H32      H        0.90590    0.72580    0.19260    1.000
    C54      C        0.79653    0.84280    0.24614    1.000
    O7       O        0.80682    0.77710    0.27230    1.000
    O8       O        0.76394    0.90130    0.24245    1.000
    K1       K        0.20417    0.55108    0.23411    1.000
    Bi2      Bi       0.74682    0.81581    0.30493    1.000
    C55      C        0.50540    0.34440    0.04282    1.000
    C56      C        0.46580    0.31100    0.04341    1.000
    C57      C        0.59720    0.43050    0.11265    1.000
    H33      H        0.62480    0.40270    0.12120    1.000
    C58      C        0.57160    0.37500    0.08532    1.000
    H34      H        0.58220    0.31000    0.07520    1.000
    C59      C        0.53093    0.41110    0.07220    1.000
    C60      C        0.51765    0.50790    0.08723    1.000
    H35      H        0.49010    0.53580    0.07860    1.000
    C61      C        0.54265    0.56520    0.11405    1.000
    H36      H        0.53240    0.63200    0.12340    1.000
    C62      C        0.58298    0.52670    0.12775    1.000
    C63      C        0.61016    0.58430    0.15757    1.000
    C64      C        0.60490    0.69980    0.16524    1.000
    H37      H        0.58370    0.74250    0.15060    1.000
    C65      C        0.63007    0.74980    0.19343    1.000
    H38      H        0.62590    0.82710    0.19820    1.000
    C66      C        0.66146    0.69100    0.21531    1.000
    C67      C        0.66750    0.57820    0.20805    1.000
    H39      H        0.68920    0.53720    0.22270    1.000
    C68      C        0.64240    0.52540    0.17990    1.000
    H40      H        0.64680    0.44810    0.17550    1.000
    C69      C        0.68801    0.74550    0.24639    1.000
    O9       O        0.71919    0.68980    0.26345    1.000
    O10      O        0.67970    0.84290    0.25607    1.000
    C70      C        0.56070    0.18150    0.97659    1.000
    H41      H        0.56460    0.10580    0.96980    1.000
    C71      C        0.53549    0.20470    0.00230    1.000
    H42      H        0.52210    0.14470    0.01270    1.000
    C72      C        0.52945    0.31370    0.01312    1.000
    C73      C        0.54977    0.39960    0.99723    1.000
    H43      H        0.54670    0.47520    0.00450    1.000
    C74      C        0.57409    0.37660    0.97141    1.000
    H44      H        0.58700    0.43660    0.96070    1.000
    C75      C        0.58018    0.26710    0.96069    1.000
    C76      C        0.60841    0.24430    0.93364    1.000
    C77      C        0.64040    0.16510    0.94055    1.000
    H45      H        0.64290    0.12040    0.96170    1.000
    C78      C        0.66870    0.15080    0.91663    1.000
    H46      H        0.69110    0.09810    0.92170    1.000
    C79      C        0.66425    0.21360    0.88536    1.000
    C80      C        0.63190    0.28880    0.87783    1.000
    H47      H        0.62840    0.33010    0.85600    1.000
    C81      C        0.60400    0.30500    0.90194    1.000
    H48      H        0.58180    0.35820    0.89670    1.000
    C82      C        0.69598    0.19960    0.86018    1.000
    O11      O        0.68944    0.24840    0.83032    1.000
    O12      O        0.72821    0.14090    0.86965    1.000
    C83      C        0.39270    0.09520    0.99357    1.000
    H49      H        0.37610    0.03430    0.99970    1.000
    C84      C        0.41570    0.15790    0.02025    1.000
    H50      H        0.41490    0.13950    0.04460    1.000
    C85      C        0.44031    0.24780    0.01238    1.000
    C86      C        0.43914    0.27550    0.97668    1.000
    H51      H        0.45460    0.33870    0.97060    1.000
    C87      C        0.41580    0.21270    0.94963    1.000
    H52      H        0.41530    0.23370    0.92530    1.000
    C88      C        0.39320    0.11980    0.95761    1.000
    C89      C        0.37013    0.04330    0.92937    1.000
    C90      C        0.36990    0.92870    0.93579    1.000
    H53      H        0.38440    0.90000    0.95790    1.000
    C91      C        0.34910    0.85560    0.91064    1.000
    H54      H        0.34990    0.77710    0.91530    1.000
    C92      C        0.32704    0.89630    0.87828    1.000
    C93      C        0.32710    0.01060    0.87189    1.000
    H55      H        0.31230    0.03920    0.84990    1.000
    C94      C        0.34860    0.08450    0.89707    1.000
    H56      H        0.34840    0.16280    0.89220    1.000
    C95      C        0.30424    0.81340    0.85284    1.000
    O13      O        0.27451    0.85030    0.82851    1.000
    O14      O        0.31351    0.71170    0.85521    1.000
    C96      C        0.44192    0.31740    0.13902    1.000
    H57      H        0.45620    0.30310    0.16270    1.000
    C97      C        0.46362    0.30530    0.11007    1.000
    H58      H        0.49210    0.28000    0.11420    1.000
    C98      C        0.44429    0.32960    0.07532    1.000
    C99      C        0.40225    0.36090    0.07000    1.000
    H59      H        0.38820    0.37520    0.04630    1.000
    C100     C        0.38000    0.37200    0.09885    1.000
    H60      H        0.35120    0.39470    0.09450    1.000
    C101     C        0.39970    0.35020    0.13391    1.000
    C102     C        0.37560    0.35500    0.16413    1.000
    C103     C        0.34250    0.43010    0.16404    1.000
    H61      H        0.33670    0.48330    0.14510    1.000
    C104     C        0.31760    0.42920    0.19097    1.000
    H62      H        0.29560    0.48260    0.19070    1.000
    C105     C        0.32512    0.35020    0.21826    1.000
    C106     C        0.35897    0.27690    0.21919    1.000
    H63      H        0.36540    0.22550    0.23860    1.000
    C107     C        0.38350    0.27820    0.19204    1.000
    H64      H        0.40590    0.22580    0.19260    1.000
    C108     C        0.29653    0.34280    0.24614    1.000
    O15      O        0.30682    0.27710    0.27230    1.000
    O16      O        0.26394    0.40130    0.24245    1.000
    K2       K        0.70417    0.05108    0.23411    1.000
    Bi3      Bi       0.75318    0.31581    0.19507    1.000
    C109     C        0.99460    0.84440    0.45718    1.000
    C110     C        0.03420    0.81100    0.45659    1.000
    C111     C        0.90280    0.93050    0.38735    1.000
    H65      H        0.87520    0.90270    0.37880    1.000
    C112     C        0.92840    0.87500    0.41468    1.000
    H66      H        0.91780    0.81000    0.42480    1.000
    C113     C        0.96907    0.91110    0.42780    1.000
    C114     C        0.98235    0.00790    0.41277    1.000
    H67      H        0.00990    0.03580    0.42140    1.000
    C115     C        0.95735    0.06520    0.38595    1.000
    H68      H        0.96760    0.13200    0.37660    1.000
    C116     C        0.91702    0.02670    0.37225    1.000
    C117     C        0.88984    0.08430    0.34243    1.000
    C118     C        0.89510    0.19980    0.33476    1.000
    H69      H        0.91630    0.24250    0.34940    1.000
    C119     C        0.86993    0.24980    0.30657    1.000
    H70      H        0.87410    0.32710    0.30180    1.000
    C120     C        0.83854    0.19100    0.28469    1.000
    C121     C        0.83250    0.07820    0.29195    1.000
    H71      H        0.81080    0.03720    0.27730    1.000
    C122     C        0.85760    0.02540    0.32010    1.000
    H72      H        0.85320    0.94810    0.32450    1.000
    C123     C        0.81199    0.24550    0.25361    1.000
    O17      O        0.78081    0.18980    0.23655    1.000
    O18      O        0.82030    0.34290    0.24393    1.000
    C124     C        0.93930    0.68150    0.52341    1.000
    H73      H        0.93540    0.60580    0.53020    1.000
    C125     C        0.96451    0.70470    0.49770    1.000
    H74      H        0.97790    0.64470    0.48730    1.000
    C126     C        0.97055    0.81370    0.48688    1.000
    C127     C        0.95023    0.89960    0.50277    1.000
    H75      H        0.95330    0.97520    0.49550    1.000
    C128     C        0.92591    0.87660    0.52859    1.000
    H76      H        0.91300    0.93660    0.53930    1.000
    C129     C        0.91982    0.76710    0.53931    1.000
    C130     C        0.89159    0.74430    0.56636    1.000
    C131     C        0.85960    0.66510    0.55945    1.000
    H77      H        0.85710    0.62040    0.53830    1.000
    C132     C        0.83130    0.65080    0.58337    1.000
    H78      H        0.80890    0.59810    0.57830    1.000
    C133     C        0.83575    0.71360    0.61464    1.000
    C134     C        0.86810    0.78880    0.62217    1.000
    H79      H        0.87160    0.83010    0.64400    1.000
    C135     C        0.89600    0.80500    0.59806    1.000
    H80      H        0.91820    0.85820    0.60330    1.000
    C136     C        0.80402    0.69960    0.63982    1.000
    O19      O        0.81056    0.74840    0.66968    1.000
    O20      O        0.77179    0.64090    0.63035    1.000
    C137     C        0.10730    0.59520    0.50643    1.000
    H81      H        0.12390    0.53430    0.50030    1.000
    C138     C        0.08430    0.65790    0.47975    1.000
    H82      H        0.08510    0.63950    0.45540    1.000
    C139     C        0.05969    0.74780    0.48762    1.000
    C140     C        0.06086    0.77550    0.52332    1.000
    H83      H        0.04540    0.83870    0.52940    1.000
    C141     C        0.08420    0.71270    0.55037    1.000
    H84      H        0.08470    0.73370    0.57470    1.000
    C142     C        0.10680    0.61980    0.54239    1.000
    C143     C        0.12987    0.54330    0.57063    1.000
    C144     C        0.13010    0.42870    0.56421    1.000
    H85      H        0.11560    0.40000    0.54210    1.000
    C145     C        0.15090    0.35560    0.58936    1.000
    H86      H        0.15010    0.27710    0.58470    1.000
    C146     C        0.17296    0.39630    0.62172    1.000
    C147     C        0.17290    0.51060    0.62811    1.000
    H87      H        0.18770    0.53920    0.65010    1.000
    C148     C        0.15140    0.58450    0.60293    1.000
    H88      H        0.15160    0.66280    0.60780    1.000
    C149     C        0.19576    0.31340    0.64716    1.000
    O21      O        0.22549    0.35030    0.67149    1.000
    O22      O        0.18649    0.21170    0.64479    1.000
    C150     C        0.05808    0.81740    0.36098    1.000
    H89      H        0.04380    0.80310    0.33730    1.000
    C151     C        0.03638    0.80530    0.38993    1.000
    H90      H        0.00790    0.78000    0.38580    1.000
    C152     C        0.05571    0.82960    0.42468    1.000
    C153     C        0.09775    0.86090    0.43000    1.000
    H91      H        0.11180    0.87520    0.45370    1.000
    C154     C        0.12000    0.87200    0.40115    1.000
    H92      H        0.14880    0.89470    0.40550    1.000
    C155     C        0.10030    0.85020    0.36609    1.000
    C156     C        0.12440    0.85500    0.33587    1.000
    C157     C        0.15750    0.93010    0.33596    1.000
    H93      H        0.16330    0.98330    0.35490    1.000
    C158     C        0.18240    0.92920    0.30903    1.000
    H94      H        0.20440    0.98260    0.30930    1.000
    C159     C        0.17488    0.85020    0.28174    1.000
    C160     C        0.14103    0.77690    0.28081    1.000
    H95      H        0.13460    0.72550    0.26140    1.000
    C161     C        0.11650    0.77820    0.30796    1.000
    H96      H        0.09410    0.72580    0.30740    1.000
    C162     C        0.20347    0.84280    0.25386    1.000
    O23      O        0.19318    0.77710    0.22770    1.000
    O24      O        0.23606    0.90130    0.25755    1.000
    K3       K        0.79583    0.55108    0.26589    1.000
    Bi4      Bi       0.25318    0.81581    0.19507    1.000
    C163     C        0.49460    0.34440    0.45718    1.000
    C164     C        0.53420    0.31100    0.45659    1.000
    C165     C        0.40280    0.43050    0.38735    1.000
    H97      H        0.37520    0.40270    0.37880    1.000
    C166     C        0.42840    0.37500    0.41468    1.000
    H98      H        0.41780    0.31000    0.42480    1.000
    C167     C        0.46907    0.41110    0.42780    1.000
    C168     C        0.48235    0.50790    0.41277    1.000
    H99      H        0.50990    0.53580    0.42140    1.000
    C169     C        0.45735    0.56520    0.38595    1.000
    H100     H        0.46760    0.63200    0.37660    1.000
    C170     C        0.41702    0.52670    0.37225    1.000
    C171     C        0.38984    0.58430    0.34243    1.000
    C172     C        0.39510    0.69980    0.33476    1.000
    H101     H        0.41630    0.74250    0.34940    1.000
    C173     C        0.36993    0.74980    0.30657    1.000
    H102     H        0.37410    0.82710    0.30180    1.000
    C174     C        0.33854    0.69100    0.28469    1.000
    C175     C        0.33250    0.57820    0.29195    1.000
    H103     H        0.31080    0.53720    0.27730    1.000
    C176     C        0.35760    0.52540    0.32010    1.000
    H104     H        0.35320    0.44810    0.32450    1.000
    C177     C        0.31199    0.74550    0.25361    1.000
    O25      O        0.28081    0.68980    0.23655    1.000
    O26      O        0.32030    0.84290    0.24393    1.000
    C178     C        0.43930    0.18150    0.52341    1.000
    H105     H        0.43540    0.10580    0.53020    1.000
    C179     C        0.46451    0.20470    0.49770    1.000
    H106     H        0.47790    0.14470    0.48730    1.000
    C180     C        0.47055    0.31370    0.48688    1.000
    C181     C        0.45023    0.39960    0.50277    1.000
    H107     H        0.45330    0.47520    0.49550    1.000
    C182     C        0.42591    0.37660    0.52859    1.000
    H108     H        0.41300    0.43660    0.53930    1.000
    C183     C        0.41982    0.26710    0.53931    1.000
    C184     C        0.39159    0.24430    0.56636    1.000
    C185     C        0.35960    0.16510    0.55945    1.000
    H109     H        0.35710    0.12040    0.53830    1.000
    C186     C        0.33130    0.15080    0.58337    1.000
    H110     H        0.30890    0.09810    0.57830    1.000
    C187     C        0.33575    0.21360    0.61464    1.000
    C188     C        0.36810    0.28880    0.62217    1.000
    H111     H        0.37160    0.33010    0.64400    1.000
    C189     C        0.39600    0.30500    0.59806    1.000
    H112     H        0.41820    0.35820    0.60330    1.000
    C190     C        0.30402    0.19960    0.63982    1.000
    O27      O        0.31056    0.24840    0.66968    1.000
    O28      O        0.27179    0.14090    0.63035    1.000
    C191     C        0.60730    0.09520    0.50643    1.000
    H113     H        0.62390    0.03430    0.50030    1.000
    C192     C        0.58430    0.15790    0.47975    1.000
    H114     H        0.58510    0.13950    0.45540    1.000
    C193     C        0.55969    0.24780    0.48762    1.000
    C194     C        0.56086    0.27550    0.52332    1.000
    H115     H        0.54540    0.33870    0.52940    1.000
    C195     C        0.58420    0.21270    0.55037    1.000
    H116     H        0.58470    0.23370    0.57470    1.000
    C196     C        0.60680    0.11980    0.54239    1.000
    C197     C        0.62987    0.04330    0.57063    1.000
    C198     C        0.63010    0.92870    0.56421    1.000
    H117     H        0.61560    0.90000    0.54210    1.000
    C199     C        0.65090    0.85560    0.58936    1.000
    H118     H        0.65010    0.77710    0.58470    1.000
    C200     C        0.67296    0.89630    0.62172    1.000
    C201     C        0.67290    0.01060    0.62811    1.000
    H119     H        0.68770    0.03920    0.65010    1.000
    C202     C        0.65140    0.08450    0.60293    1.000
    H120     H        0.65160    0.16280    0.60780    1.000
    C203     C        0.69576    0.81340    0.64716    1.000
    O29      O        0.72549    0.85030    0.67149    1.000
    O30      O        0.68649    0.71170    0.64479    1.000
    C204     C        0.55808    0.31740    0.36098    1.000
    H121     H        0.54380    0.30310    0.33730    1.000
    C205     C        0.53638    0.30530    0.38993    1.000
    H122     H        0.50790    0.28000    0.38580    1.000
    C206     C        0.55571    0.32960    0.42468    1.000
    C207     C        0.59775    0.36090    0.43000    1.000
    H123     H        0.61180    0.37520    0.45370    1.000
    C208     C        0.62000    0.37200    0.40115    1.000
    H124     H        0.64880    0.39470    0.40550    1.000
    C209     C        0.60030    0.35020    0.36609    1.000
    C210     C        0.62440    0.35500    0.33587    1.000
    C211     C        0.65750    0.43010    0.33596    1.000
    H125     H        0.66330    0.48330    0.35490    1.000
    C212     C        0.68240    0.42920    0.30903    1.000
    H126     H        0.70440    0.48260    0.30930    1.000
    C213     C        0.67488    0.35020    0.28174    1.000
    C214     C        0.64103    0.27690    0.28081    1.000
    H127     H        0.63460    0.22550    0.26140    1.000
    C215     C        0.61650    0.27820    0.30796    1.000
    H128     H        0.59410    0.22580    0.30740    1.000
    C216     C        0.70347    0.34280    0.25386    1.000
    O31      O        0.69318    0.27710    0.22770    1.000
    O32      O        0.73606    0.40130    0.25755    1.000
    K4       K        0.29583    0.05108    0.26589    1.000
    Bi5      Bi       0.75318    0.68419    0.69507    1.000
    C217     C        0.99460    0.15560    0.95718    1.000
    C218     C        0.03420    0.18900    0.95659    1.000
    C219     C        0.90280    0.06950    0.88735    1.000
    H129     H        0.87520    0.09730    0.87880    1.000
    C220     C        0.92840    0.12500    0.91468    1.000
    H130     H        0.91780    0.19000    0.92480    1.000
    C221     C        0.96907    0.08890    0.92780    1.000
    C222     C        0.98235    0.99210    0.91277    1.000
    H131     H        0.00990    0.96420    0.92140    1.000
    C223     C        0.95735    0.93480    0.88595    1.000
    H132     H        0.96760    0.86800    0.87660    1.000
    C224     C        0.91702    0.97330    0.87225    1.000
    C225     C        0.88984    0.91570    0.84243    1.000
    C226     C        0.89510    0.80020    0.83476    1.000
    H133     H        0.91630    0.75750    0.84940    1.000
    C227     C        0.86993    0.75020    0.80657    1.000
    H134     H        0.87410    0.67290    0.80180    1.000
    C228     C        0.83854    0.80900    0.78469    1.000
    C229     C        0.83250    0.92180    0.79195    1.000
    H135     H        0.81080    0.96280    0.77730    1.000
    C230     C        0.85760    0.97460    0.82010    1.000
    H136     H        0.85320    0.05190    0.82450    1.000
    C231     C        0.81199    0.75450    0.75361    1.000
    O33      O        0.78081    0.81020    0.73655    1.000
    O34      O        0.82030    0.65710    0.74393    1.000
    C232     C        0.93930    0.31850    0.02341    1.000
    H137     H        0.93540    0.39420    0.03020    1.000
    C233     C        0.96451    0.29530    0.99770    1.000
    H138     H        0.97790    0.35530    0.98730    1.000
    C234     C        0.97055    0.18630    0.98688    1.000
    C235     C        0.95023    0.10040    0.00277    1.000
    H139     H        0.95330    0.02480    0.99550    1.000
    C236     C        0.92591    0.12340    0.02859    1.000
    H140     H        0.91300    0.06340    0.03930    1.000
    C237     C        0.91982    0.23290    0.03931    1.000
    C238     C        0.89159    0.25570    0.06636    1.000
    C239     C        0.85960    0.33490    0.05945    1.000
    H141     H        0.85710    0.37960    0.03830    1.000
    C240     C        0.83130    0.34920    0.08337    1.000
    H142     H        0.80890    0.40190    0.07830    1.000
    C241     C        0.83575    0.28640    0.11464    1.000
    C242     C        0.86810    0.21120    0.12217    1.000
    H143     H        0.87160    0.16990    0.14400    1.000
    C243     C        0.89600    0.19500    0.09806    1.000
    H144     H        0.91820    0.14180    0.10330    1.000
    C244     C        0.80402    0.30040    0.13982    1.000
    O35      O        0.81056    0.25160    0.16968    1.000
    O36      O        0.77179    0.35910    0.13035    1.000
    C245     C        0.10730    0.40480    0.00643    1.000
    H145     H        0.12390    0.46570    0.00030    1.000
    C246     C        0.08430    0.34210    0.97975    1.000
    H146     H        0.08510    0.36050    0.95540    1.000
    C247     C        0.05969    0.25220    0.98762    1.000
    C248     C        0.06086    0.22450    0.02332    1.000
    H147     H        0.04540    0.16130    0.02940    1.000
    C249     C        0.08420    0.28730    0.05037    1.000
    H148     H        0.08470    0.26630    0.07470    1.000
    C250     C        0.10680    0.38020    0.04239    1.000
    C251     C        0.12987    0.45670    0.07063    1.000
    C252     C        0.13010    0.57130    0.06421    1.000
    H149     H        0.11560    0.60000    0.04210    1.000
    C253     C        0.15090    0.64440    0.08936    1.000
    H150     H        0.15010    0.72290    0.08470    1.000
    C254     C        0.17296    0.60370    0.12172    1.000
    C255     C        0.17290    0.48940    0.12811    1.000
    H151     H        0.18770    0.46080    0.15010    1.000
    C256     C        0.15140    0.41550    0.10293    1.000
    H152     H        0.15160    0.33720    0.10780    1.000
    C257     C        0.19576    0.68660    0.14716    1.000
    O37      O        0.22549    0.64970    0.17149    1.000
    O38      O        0.18649    0.78830    0.14479    1.000
    C258     C        0.05808    0.18260    0.86098    1.000
    H153     H        0.04380    0.19690    0.83730    1.000
    C259     C        0.03638    0.19470    0.88993    1.000
    H154     H        0.00790    0.22000    0.88580    1.000
    C260     C        0.05571    0.17040    0.92468    1.000
    C261     C        0.09775    0.13910    0.93000    1.000
    H155     H        0.11180    0.12480    0.95370    1.000
    C262     C        0.12000    0.12800    0.90115    1.000
    H156     H        0.14880    0.10530    0.90550    1.000
    C263     C        0.10030    0.14980    0.86609    1.000
    C264     C        0.12440    0.14500    0.83587    1.000
    C265     C        0.15750    0.06990    0.83596    1.000
    H157     H        0.16330    0.01670    0.85490    1.000
    C266     C        0.18240    0.07080    0.80903    1.000
    H158     H        0.20440    0.01740    0.80930    1.000
    C267     C        0.17488    0.14980    0.78174    1.000
    C268     C        0.14103    0.22310    0.78081    1.000
    H159     H        0.13460    0.27450    0.76140    1.000
    C269     C        0.11650    0.22180    0.80796    1.000
    H160     H        0.09410    0.27420    0.80740    1.000
    C270     C        0.20347    0.15720    0.75386    1.000
    O39      O        0.19318    0.22290    0.72770    1.000
    O40      O        0.23606    0.09870    0.75755    1.000
    K5       K        0.79583    0.44892    0.76589    1.000
    Bi6      Bi       0.25318    0.18419    0.69507    1.000
    C271     C        0.49460    0.65560    0.95718    1.000
    C272     C        0.53420    0.68900    0.95659    1.000
    C273     C        0.40280    0.56950    0.88735    1.000
    H161     H        0.37520    0.59730    0.87880    1.000
    C274     C        0.42840    0.62500    0.91468    1.000
    H162     H        0.41780    0.69000    0.92480    1.000
    C275     C        0.46907    0.58890    0.92780    1.000
    C276     C        0.48235    0.49210    0.91277    1.000
    H163     H        0.50990    0.46420    0.92140    1.000
    C277     C        0.45735    0.43480    0.88595    1.000
    H164     H        0.46760    0.36800    0.87660    1.000
    C278     C        0.41702    0.47330    0.87225    1.000
    C279     C        0.38984    0.41570    0.84243    1.000
    C280     C        0.39510    0.30020    0.83476    1.000
    H165     H        0.41630    0.25750    0.84940    1.000
    C281     C        0.36993    0.25020    0.80657    1.000
    H166     H        0.37410    0.17290    0.80180    1.000
    C282     C        0.33854    0.30900    0.78469    1.000
    C283     C        0.33250    0.42180    0.79195    1.000
    H167     H        0.31080    0.46280    0.77730    1.000
    C284     C        0.35760    0.47460    0.82010    1.000
    H168     H        0.35320    0.55190    0.82450    1.000
    C285     C        0.31199    0.25450    0.75361    1.000
    O41      O        0.28081    0.31020    0.73655    1.000
    O42      O        0.32030    0.15710    0.74393    1.000
    C286     C        0.43930    0.81850    0.02341    1.000
    H169     H        0.43540    0.89420    0.03020    1.000
    C287     C        0.46451    0.79530    0.99770    1.000
    H170     H        0.47790    0.85530    0.98730    1.000
    C288     C        0.47055    0.68630    0.98688    1.000
    C289     C        0.45023    0.60040    0.00277    1.000
    H171     H        0.45330    0.52480    0.99550    1.000
    C290     C        0.42591    0.62340    0.02859    1.000
    H172     H        0.41300    0.56340    0.03930    1.000
    C291     C        0.41982    0.73290    0.03931    1.000
    C292     C        0.39159    0.75570    0.06636    1.000
    C293     C        0.35960    0.83490    0.05945    1.000
    H173     H        0.35710    0.87960    0.03830    1.000
    C294     C        0.33130    0.84920    0.08337    1.000
    H174     H        0.30890    0.90190    0.07830    1.000
    C295     C        0.33575    0.78640    0.11464    1.000
    C296     C        0.36810    0.71120    0.12217    1.000
    H175     H        0.37160    0.66990    0.14400    1.000
    C297     C        0.39600    0.69500    0.09806    1.000
    H176     H        0.41820    0.64180    0.10330    1.000
    C298     C        0.30402    0.80040    0.13982    1.000
    O43      O        0.31056    0.75160    0.16968    1.000
    O44      O        0.27179    0.85910    0.13035    1.000
    C299     C        0.60730    0.90480    0.00643    1.000
    H177     H        0.62390    0.96570    0.00030    1.000
    C300     C        0.58430    0.84210    0.97975    1.000
    H178     H        0.58510    0.86050    0.95540    1.000
    C301     C        0.55969    0.75220    0.98762    1.000
    C302     C        0.56086    0.72450    0.02332    1.000
    H179     H        0.54540    0.66130    0.02940    1.000
    C303     C        0.58420    0.78730    0.05037    1.000
    H180     H        0.58470    0.76630    0.07470    1.000
    C304     C        0.60680    0.88020    0.04239    1.000
    C305     C        0.62987    0.95670    0.07063    1.000
    C306     C        0.63010    0.07130    0.06421    1.000
    H181     H        0.61560    0.10000    0.04210    1.000
    C307     C        0.65090    0.14440    0.08936    1.000
    H182     H        0.65010    0.22290    0.08470    1.000
    C308     C        0.67296    0.10370    0.12172    1.000
    C309     C        0.67290    0.98940    0.12811    1.000
    H183     H        0.68770    0.96080    0.15010    1.000
    C310     C        0.65140    0.91550    0.10293    1.000
    H184     H        0.65160    0.83720    0.10780    1.000
    C311     C        0.69576    0.18660    0.14716    1.000
    O45      O        0.72549    0.14970    0.17149    1.000
    O46      O        0.68649    0.28830    0.14479    1.000
    C312     C        0.55808    0.68260    0.86098    1.000
    H185     H        0.54380    0.69690    0.83730    1.000
    C313     C        0.53638    0.69470    0.88993    1.000
    H186     H        0.50790    0.72000    0.88580    1.000
    C314     C        0.55571    0.67040    0.92468    1.000
    C315     C        0.59775    0.63910    0.93000    1.000
    H187     H        0.61180    0.62480    0.95370    1.000
    C316     C        0.62000    0.62800    0.90115    1.000
    H188     H        0.64880    0.60530    0.90550    1.000
    C317     C        0.60030    0.64980    0.86609    1.000
    C318     C        0.62440    0.64500    0.83587    1.000
    C319     C        0.65750    0.56990    0.83596    1.000
    H189     H        0.66330    0.51670    0.85490    1.000
    C320     C        0.68240    0.57080    0.80903    1.000
    H190     H        0.70440    0.51740    0.80930    1.000
    C321     C        0.67488    0.64980    0.78174    1.000
    C322     C        0.64103    0.72310    0.78081    1.000
    H191     H        0.63460    0.77450    0.76140    1.000
    C323     C        0.61650    0.72180    0.80796    1.000
    H192     H        0.59410    0.77420    0.80740    1.000
    C324     C        0.70347    0.65720    0.75386    1.000
    O47      O        0.69318    0.72290    0.72770    1.000
    O48      O        0.73606    0.59870    0.75755    1.000
    K6       K        0.29583    0.94892    0.76589    1.000
    Bi7      Bi       0.24682    0.68419    0.80493    1.000
    C325     C        0.00540    0.15560    0.54282    1.000
    C326     C        0.96580    0.18900    0.54341    1.000
    C327     C        0.09720    0.06950    0.61265    1.000
    H193     H        0.12480    0.09730    0.62120    1.000
    C328     C        0.07160    0.12500    0.58532    1.000
    H194     H        0.08220    0.19000    0.57520    1.000
    C329     C        0.03093    0.08890    0.57220    1.000
    C330     C        0.01765    0.99210    0.58723    1.000
    H195     H        0.99010    0.96420    0.57860    1.000
    C331     C        0.04265    0.93480    0.61405    1.000
    H196     H        0.03240    0.86800    0.62340    1.000
    C332     C        0.08298    0.97330    0.62775    1.000
    C333     C        0.11016    0.91570    0.65757    1.000
    C334     C        0.10490    0.80020    0.66524    1.000
    H197     H        0.08370    0.75750    0.65060    1.000
    C335     C        0.13007    0.75020    0.69343    1.000
    H198     H        0.12590    0.67290    0.69820    1.000
    C336     C        0.16146    0.80900    0.71531    1.000
    C337     C        0.16750    0.92180    0.70805    1.000
    H199     H        0.18920    0.96280    0.72270    1.000
    C338     C        0.14240    0.97460    0.67990    1.000
    H200     H        0.14680    0.05190    0.67550    1.000
    C339     C        0.18801    0.75450    0.74639    1.000
    O49      O        0.21919    0.81020    0.76345    1.000
    O50      O        0.17970    0.65710    0.75607    1.000
    C340     C        0.06070    0.31850    0.47659    1.000
    H201     H        0.06460    0.39420    0.46980    1.000
    C341     C        0.03549    0.29530    0.50230    1.000
    H202     H        0.02210    0.35530    0.51270    1.000
    C342     C        0.02945    0.18630    0.51312    1.000
    C343     C        0.04977    0.10040    0.49723    1.000
    H203     H        0.04670    0.02480    0.50450    1.000
    C344     C        0.07409    0.12340    0.47141    1.000
    H204     H        0.08700    0.06340    0.46070    1.000
    C345     C        0.08018    0.23290    0.46069    1.000
    C346     C        0.10841    0.25570    0.43364    1.000
    C347     C        0.14040    0.33490    0.44055    1.000
    H205     H        0.14290    0.37960    0.46170    1.000
    C348     C        0.16870    0.34920    0.41663    1.000
    H206     H        0.19110    0.40190    0.42170    1.000
    C349     C        0.16425    0.28640    0.38536    1.000
    C350     C        0.13190    0.21120    0.37783    1.000
    H207     H        0.12840    0.16990    0.35600    1.000
    C351     C        0.10400    0.19500    0.40194    1.000
    H208     H        0.08180    0.14180    0.39670    1.000
    C352     C        0.19598    0.30040    0.36018    1.000
    O51      O        0.18944    0.25160    0.33032    1.000
    O52      O        0.22821    0.35910    0.36965    1.000
    C353     C        0.89270    0.40480    0.49357    1.000
    H209     H        0.87610    0.46570    0.49970    1.000
    C354     C        0.91570    0.34210    0.52025    1.000
    H210     H        0.91490    0.36050    0.54460    1.000
    C355     C        0.94031    0.25220    0.51238    1.000
    C356     C        0.93914    0.22450    0.47668    1.000
    H211     H        0.95460    0.16130    0.47060    1.000
    C357     C        0.91580    0.28730    0.44963    1.000
    H212     H        0.91530    0.26630    0.42530    1.000
    C358     C        0.89320    0.38020    0.45761    1.000
    C359     C        0.87013    0.45670    0.42937    1.000
    C360     C        0.86990    0.57130    0.43579    1.000
    H213     H        0.88440    0.60000    0.45790    1.000
    C361     C        0.84910    0.64440    0.41064    1.000
    H214     H        0.84990    0.72290    0.41530    1.000
    C362     C        0.82704    0.60370    0.37828    1.000
    C363     C        0.82710    0.48940    0.37189    1.000
    H215     H        0.81230    0.46080    0.34990    1.000
    C364     C        0.84860    0.41550    0.39707    1.000
    H216     H        0.84840    0.33720    0.39220    1.000
    C365     C        0.80424    0.68660    0.35284    1.000
    O53      O        0.77451    0.64970    0.32851    1.000
    O54      O        0.81351    0.78830    0.35521    1.000
    C366     C        0.94192    0.18260    0.63902    1.000
    H217     H        0.95620    0.19690    0.66270    1.000
    C367     C        0.96362    0.19470    0.61007    1.000
    H218     H        0.99210    0.22000    0.61420    1.000
    C368     C        0.94429    0.17040    0.57532    1.000
    C369     C        0.90225    0.13910    0.57000    1.000
    H219     H        0.88820    0.12480    0.54630    1.000
    C370     C        0.88000    0.12800    0.59885    1.000
    H220     H        0.85120    0.10530    0.59450    1.000
    C371     C        0.89970    0.14980    0.63391    1.000
    C372     C        0.87560    0.14500    0.66413    1.000
    C373     C        0.84250    0.06990    0.66404    1.000
    H221     H        0.83670    0.01670    0.64510    1.000
    C374     C        0.81760    0.07080    0.69097    1.000
    H222     H        0.79560    0.01740    0.69070    1.000
    C375     C        0.82512    0.14980    0.71826    1.000
    C376     C        0.85897    0.22310    0.71919    1.000
    H223     H        0.86540    0.27450    0.73860    1.000
    C377     C        0.88350    0.22180    0.69204    1.000
    H224     H        0.90590    0.27420    0.69260    1.000
    C378     C        0.79653    0.15720    0.74614    1.000
    O55      O        0.80682    0.22290    0.77230    1.000
    O56      O        0.76394    0.09870    0.74245    1.000
    K7       K        0.20417    0.44892    0.73411    1.000
    Bi8      Bi       0.74682    0.18419    0.80493    1.000
    C379     C        0.50540    0.65560    0.54282    1.000
    C380     C        0.46580    0.68900    0.54341    1.000
    C381     C        0.59720    0.56950    0.61265    1.000
    H225     H        0.62480    0.59730    0.62120    1.000
    C382     C        0.57160    0.62500    0.58532    1.000
    H226     H        0.58220    0.69000    0.57520    1.000
    C383     C        0.53093    0.58890    0.57220    1.000
    C384     C        0.51765    0.49210    0.58723    1.000
    H227     H        0.49010    0.46420    0.57860    1.000
    C385     C        0.54265    0.43480    0.61405    1.000
    H228     H        0.53240    0.36800    0.62340    1.000
    C386     C        0.58298    0.47330    0.62775    1.000
    C387     C        0.61016    0.41570    0.65757    1.000
    C388     C        0.60490    0.30020    0.66524    1.000
    H229     H        0.58370    0.25750    0.65060    1.000
    C389     C        0.63007    0.25020    0.69343    1.000
    H230     H        0.62590    0.17290    0.69820    1.000
    C390     C        0.66146    0.30900    0.71531    1.000
    C391     C        0.66750    0.42180    0.70805    1.000
    H231     H        0.68920    0.46280    0.72270    1.000
    C392     C        0.64240    0.47460    0.67990    1.000
    H232     H        0.64680    0.55190    0.67550    1.000
    C393     C        0.68801    0.25450    0.74639    1.000
    O57      O        0.71919    0.31020    0.76345    1.000
    O58      O        0.67970    0.15710    0.75607    1.000
    C394     C        0.56070    0.81850    0.47659    1.000
    H233     H        0.56460    0.89420    0.46980    1.000
    C395     C        0.53549    0.79530    0.50230    1.000
    H234     H        0.52210    0.85530    0.51270    1.000
    C396     C        0.52945    0.68630    0.51312    1.000
    C397     C        0.54977    0.60040    0.49723    1.000
    H235     H        0.54670    0.52480    0.50450    1.000
    C398     C        0.57409    0.62340    0.47141    1.000
    H236     H        0.58700    0.56340    0.46070    1.000
    C399     C        0.58018    0.73290    0.46069    1.000
    C400     C        0.60841    0.75570    0.43364    1.000
    C401     C        0.64040    0.83490    0.44055    1.000
    H237     H        0.64290    0.87960    0.46170    1.000
    C402     C        0.66870    0.84920    0.41663    1.000
    H238     H        0.69110    0.90190    0.42170    1.000
    C403     C        0.66425    0.78640    0.38536    1.000
    C404     C        0.63190    0.71120    0.37783    1.000
    H239     H        0.62840    0.66990    0.35600    1.000
    C405     C        0.60400    0.69500    0.40194    1.000
    H240     H        0.58180    0.64180    0.39670    1.000
    C406     C        0.69598    0.80040    0.36018    1.000
    O59      O        0.68944    0.75160    0.33032    1.000
    O60      O        0.72821    0.85910    0.36965    1.000
    C407     C        0.39270    0.90480    0.49357    1.000
    H241     H        0.37610    0.96570    0.49970    1.000
    C408     C        0.41570    0.84210    0.52025    1.000
    H242     H        0.41490    0.86050    0.54460    1.000
    C409     C        0.44031    0.75220    0.51238    1.000
    C410     C        0.43914    0.72450    0.47668    1.000
    H243     H        0.45460    0.66130    0.47060    1.000
    C411     C        0.41580    0.78730    0.44963    1.000
    H244     H        0.41530    0.76630    0.42530    1.000
    C412     C        0.39320    0.88020    0.45761    1.000
    C413     C        0.37013    0.95670    0.42937    1.000
    C414     C        0.36990    0.07130    0.43579    1.000
    H245     H        0.38440    0.10000    0.45790    1.000
    C415     C        0.34910    0.14440    0.41064    1.000
    H246     H        0.34990    0.22290    0.41530    1.000
    C416     C        0.32704    0.10370    0.37828    1.000
    C417     C        0.32710    0.98940    0.37189    1.000
    H247     H        0.31230    0.96080    0.34990    1.000
    C418     C        0.34860    0.91550    0.39707    1.000
    H248     H        0.34840    0.83720    0.39220    1.000
    C419     C        0.30424    0.18660    0.35284    1.000
    O61      O        0.27451    0.14970    0.32851    1.000
    O62      O        0.31351    0.28830    0.35521    1.000
    C420     C        0.44192    0.68260    0.63902    1.000
    H249     H        0.45620    0.69690    0.66270    1.000
    C421     C        0.46362    0.69470    0.61007    1.000
    H250     H        0.49210    0.72000    0.61420    1.000
    C422     C        0.44429    0.67040    0.57532    1.000
    C423     C        0.40225    0.63910    0.57000    1.000
    H251     H        0.38820    0.62480    0.54630    1.000
    C424     C        0.38000    0.62800    0.59885    1.000
    H252     H        0.35120    0.60530    0.59450    1.000
    C425     C        0.39970    0.64980    0.63391    1.000
    C426     C        0.37560    0.64500    0.66413    1.000
    C427     C        0.34250    0.56990    0.66404    1.000
    H253     H        0.33670    0.51670    0.64510    1.000
    C428     C        0.31760    0.57080    0.69097    1.000
    H254     H        0.29560    0.51740    0.69070    1.000
    C429     C        0.32512    0.64980    0.71826    1.000
    C430     C        0.35897    0.72310    0.71919    1.000
    H255     H        0.36540    0.77450    0.73860    1.000
    C431     C        0.38350    0.72180    0.69204    1.000
    H256     H        0.40590    0.77420    0.69260    1.000
    C432     C        0.29653    0.65720    0.74614    1.000
    O63      O        0.30682    0.72290    0.77230    1.000
    O64      O        0.26394    0.59870    0.74245    1.000
    K8       K        0.70417    0.94892    0.73411    1.000
