# CIF file generated by openbabel 3.1.0, see https://openbabel.org
data_I
_chemical_name_common 'NAYMOQ_clean'
_cell_length_a 8.903
_cell_length_b 12.3722
_cell_length_c 12.3722
_cell_angle_alpha 93.0949
_cell_angle_beta 110.844
_cell_angle_gamma 110.844
_space_group_name_H-M_alt 'P 1'
_space_group_name_Hall 'P 1'
loop_
    _symmetry_equiv_pos_as_xyz
    x,y,z
loop_
    _atom_site_label
    _atom_site_type_symbol
    _atom_site_fract_x
    _atom_site_fract_y
    _atom_site_fract_z
    _atom_site_occupancy
    Na1      Na       0.16750    0.30291    0.47895    1.000
    Na2      Na       0.18300    0.57290    0.58922    1.000
    Na3      Na       0.66750    0.47895    0.30291    1.000
    Na4      Na       0.68300    0.58922    0.57290    1.000
    H1       H        0.02200    0.42400    0.36400    1.000
    H2       H        0.15700    0.49200    0.35200    1.000
    H3       H        0.09100    0.37500    0.68500    1.000
    H4       H        0.93800    0.32400    0.59800    1.000
    H5       H        0.45400    0.46700    0.68900    1.000
    H6       H        0.51500    0.39000    0.63800    1.000
    H7       H        0.52200    0.36400    0.42400    1.000
    H8       H        0.65700    0.35200    0.49200    1.000
    H9       H        0.59100    0.68500    0.37500    1.000
    H10      H        0.43800    0.59800    0.32400    1.000
    H11      H        0.95400    0.68900    0.46700    1.000
    H12      H        0.01500    0.63800    0.39000    1.000
    C1       C        0.49880    0.04370    0.60170    1.000
    C2       C        0.59170    0.17510    0.60430    1.000
    C3       C        0.38770    0.84340    0.49540    1.000
    C4       C        0.53180    0.80700    0.56900    1.000
    C5       C        0.32340    0.99720    0.38880    1.000
    C6       C        0.13560    0.93800    0.38240    1.000
    C7       C        0.00450    0.96610    0.28150    1.000
    C8       C        0.00930    0.92650    0.16470    1.000
    C9       C        0.19240    0.98830    0.16890    1.000
    C10      C        0.33170    0.96530    0.27090    1.000
    C11      C        0.53980    0.96130    0.18610    1.000
    C12      C        0.55450    0.84690    0.21610    1.000
    C13      C        0.55150    0.15230    0.25990    1.000
    C14      C        0.74710    0.23200    0.30380    1.000
    C15      C        0.99880    0.60170    0.04370    1.000
    C16      C        0.09170    0.60430    0.17510    1.000
    C17      C        0.88770    0.49540    0.84340    1.000
    C18      C        0.03180    0.56900    0.80700    1.000
    C19      C        0.82340    0.38880    0.99720    1.000
    C20      C        0.63560    0.38240    0.93800    1.000
    C21      C        0.50450    0.28150    0.96610    1.000
    C22      C        0.50930    0.16470    0.92650    1.000
    C23      C        0.69240    0.16890    0.98830    1.000
    C24      C        0.83170    0.27090    0.96530    1.000
    C25      C        0.03980    0.18610    0.96130    1.000
    C26      C        0.05450    0.21610    0.84690    1.000
    C27      C        0.05150    0.25990    0.15230    1.000
    C28      C        0.24710    0.30380    0.23200    1.000
    N1       N        0.45490    0.97040    0.48760    1.000
    N2       N        0.51430    0.02830    0.27590    1.000
    N3       N        0.95490    0.48760    0.97040    1.000
    N4       N        0.01430    0.27590    0.02830    1.000
    O1       O        0.69300    0.20250    0.55090    1.000
    O2       O        0.56070    0.24620    0.65980    1.000
    O3       O        0.68740    0.87270    0.59490    1.000
    O4       O        0.48110    0.70880    0.59920    1.000
    O5       O        0.60110    0.83990    0.32490    1.000
    O6       O        0.53160    0.77100    0.13480    1.000
    O7       O        0.85880    0.19400    0.35880    1.000
    O8       O        0.78090    0.33380    0.28020    1.000
    O9       O        0.13160    0.46690    0.40530    1.000
    O10      O        0.05510    0.37400    0.61440    1.000
    O11      O        0.46550    0.44250    0.62490    1.000
    O12      O        0.19300    0.55090    0.20250    1.000
    O13      O        0.06070    0.65980    0.24620    1.000
    O14      O        0.18740    0.59490    0.87270    1.000
    O15      O        0.98110    0.59920    0.70880    1.000
    O16      O        0.10110    0.32490    0.83990    1.000
    O17      O        0.03160    0.13480    0.77100    1.000
    O18      O        0.35880    0.35880    0.19400    1.000
    O19      O        0.28090    0.28020    0.33380    1.000
    O20      O        0.63160    0.40530    0.46690    1.000
    O21      O        0.55510    0.61440    0.37400    1.000
    O22      O        0.96550    0.62490    0.44250    1.000
