# CIF file generated by openbabel 3.1.0, see https://openbabel.org
data_I
_chemical_name_common 'image0'
_cell_length_a 10.1414
_cell_length_b 17.3983
_cell_length_c 11.3646
_cell_angle_alpha 90
_cell_angle_beta 110.085
_cell_angle_gamma 90
_space_group_name_H-M_alt 'P 1'
_space_group_name_Hall 'P 1'
loop_
    _symmetry_equiv_pos_as_xyz
    x,y,z
loop_
    _atom_site_label
    _atom_site_type_symbol
    _atom_site_fract_x
    _atom_site_fract_y
    _atom_site_fract_z
    _atom_site_occupancy
    Dy1      Dy       0.50947    0.50704    0.68128    1.000
    O1       O        0.72830    0.48579    0.65570    1.000
    O2       O        0.70280    0.53865    0.87940    1.000
    O3       O        0.70870    0.45292    0.45870    1.000
    O4       O        0.35670    0.41743    0.72510    1.000
    O5       O        0.41190    0.56798    0.81690    1.000
    N1       N        0.73100    0.46960    0.90790    1.000
    O6       O        0.56040    0.86074    0.15740    1.000
    O7       O        0.52610    0.91584    0.97480    1.000
    O8       O        0.64640    0.41826    0.84410    1.000
    N2       N        0.44680    0.63686    0.86960    1.000
    N3       N        0.21800    0.42520    0.69020    1.000
    C1       C        0.13530    0.39940    0.57730    1.000
    H1       H        0.17510    0.37450    0.52520    1.000
    C2       C        0.53730    0.85670    0.04280    1.000
    C3       C        0.55110    0.71210    0.05060    1.000
    H2       H        0.59860    0.71520    0.13650    1.000
    C4       C        0.02000    0.46840    0.73510    1.000
    H3       H        0.98220    0.49020    0.79120    1.000
    C5       C        0.43760    0.77210    0.85260    1.000
    H4       H        0.41000    0.81600    0.80350    1.000
    O9       O        0.83700    0.45180    0.99580    1.000
    C6       C        0.99250    0.40960    0.53870    1.000
    H5       H        0.93610    0.39250    0.45990    1.000
    C7       C        0.77640    0.46240    0.57410    1.000
    C8       C        0.93180    0.44550    0.61710    1.000
    C9       C        0.40510    0.70100    0.79860    1.000
    H6       H        0.35440    0.69670    0.71350    1.000
    C10      C        0.51140    0.77910    0.97960    1.000
    C11      C        0.16180    0.45920    0.76880    1.000
    H7       H        0.22030    0.47640    0.84660    1.000
    C12      C        0.51970    0.64190    0.99310    1.000
    H8       H        0.54910    0.59730    0.03990    1.000
    Dy2      Dy       0.49053    0.00704    0.81872    1.000
    O10      O        0.27170    0.98579    0.84430    1.000
    O11      O        0.29720    0.03865    0.62060    1.000
    O12      O        0.29130    0.95292    0.04130    1.000
    O13      O        0.64330    0.91743    0.77490    1.000
    O14      O        0.58810    0.06798    0.68310    1.000
    N4       N        0.26900    0.96960    0.59210    1.000
    O15      O        0.43960    0.36074    0.34260    1.000
    O16      O        0.47390    0.41584    0.52520    1.000
    O17      O        0.35360    0.91826    0.65590    1.000
    N5       N        0.55320    0.13686    0.63040    1.000
    N6       N        0.78200    0.92520    0.80980    1.000
    C13      C        0.86470    0.89940    0.92270    1.000
    H9       H        0.82490    0.87450    0.97480    1.000
    C14      C        0.46270    0.35670    0.45720    1.000
    C15      C        0.44890    0.21210    0.44940    1.000
    H10      H        0.40140    0.21520    0.36350    1.000
    C16      C        0.98000    0.96840    0.76490    1.000
    H11      H        0.01780    0.99020    0.70880    1.000
    C17      C        0.56240    0.27210    0.64740    1.000
    H12      H        0.59000    0.31600    0.69650    1.000
    O18      O        0.16300    0.95180    0.50420    1.000
    C18      C        0.00750    0.90960    0.96130    1.000
    H13      H        0.06390    0.89250    0.04010    1.000
    C19      C        0.22360    0.96240    0.92590    1.000
    C20      C        0.06820    0.94550    0.88290    1.000
    C21      C        0.59490    0.20100    0.70140    1.000
    H14      H        0.64560    0.19670    0.78650    1.000
    C22      C        0.48860    0.27910    0.52040    1.000
    C23      C        0.83820    0.95920    0.73120    1.000
    H15      H        0.77970    0.97640    0.65340    1.000
    C24      C        0.48030    0.14190    0.50690    1.000
    H16      H        0.45090    0.09730    0.46010    1.000
    Dy3      Dy       0.49053    0.49296    0.31872    1.000
    O19      O        0.27170    0.51421    0.34430    1.000
    O20      O        0.29720    0.46135    0.12060    1.000
    O21      O        0.29130    0.54708    0.54130    1.000
    O22      O        0.64330    0.58257    0.27490    1.000
    O23      O        0.58810    0.43202    0.18310    1.000
    N7       N        0.26900    0.53040    0.09210    1.000
    O24      O        0.43960    0.13926    0.84260    1.000
    O25      O        0.47390    0.08416    0.02520    1.000
    O26      O        0.35360    0.58174    0.15590    1.000
    N8       N        0.55320    0.36314    0.13040    1.000
    N9       N        0.78200    0.57480    0.30980    1.000
    C25      C        0.86470    0.60060    0.42270    1.000
    H17      H        0.82490    0.62550    0.47480    1.000
    C26      C        0.46270    0.14330    0.95720    1.000
    C27      C        0.44890    0.28790    0.94940    1.000
    H18      H        0.40140    0.28480    0.86350    1.000
    C28      C        0.98000    0.53160    0.26490    1.000
    H19      H        0.01780    0.50980    0.20880    1.000
    C29      C        0.56240    0.22790    0.14740    1.000
    H20      H        0.59000    0.18400    0.19650    1.000
    O27      O        0.16300    0.54820    0.00420    1.000
    C30      C        0.00750    0.59040    0.46130    1.000
    H21      H        0.06390    0.60750    0.54010    1.000
    C31      C        0.22360    0.53760    0.42590    1.000
    C32      C        0.06820    0.55450    0.38290    1.000
    C33      C        0.59490    0.29900    0.20140    1.000
    H22      H        0.64560    0.30330    0.28650    1.000
    C34      C        0.48860    0.22090    0.02040    1.000
    C35      C        0.83820    0.54080    0.23120    1.000
    H23      H        0.77970    0.52360    0.15340    1.000
    C36      C        0.48030    0.35810    0.00690    1.000
    H24      H        0.45090    0.40270    0.96010    1.000
    Dy4      Dy       0.50947    0.99296    0.18128    1.000
    O28      O        0.72830    0.01421    0.15570    1.000
    O29      O        0.70280    0.96135    0.37940    1.000
    O30      O        0.70870    0.04708    0.95870    1.000
    O31      O        0.35670    0.08257    0.22510    1.000
    O32      O        0.41190    0.93202    0.31690    1.000
    N10      N        0.73100    0.03040    0.40790    1.000
    O33      O        0.56040    0.63926    0.65740    1.000
    O34      O        0.52610    0.58416    0.47480    1.000
    O35      O        0.64640    0.08174    0.34410    1.000
    N11      N        0.44680    0.86314    0.36960    1.000
    N12      N        0.21800    0.07480    0.19020    1.000
    C37      C        0.13530    0.10060    0.07730    1.000
    H25      H        0.17510    0.12550    0.02520    1.000
    C38      C        0.53730    0.64330    0.54280    1.000
    C39      C        0.55110    0.78790    0.55060    1.000
    H26      H        0.59860    0.78480    0.63650    1.000
    C40      C        0.02000    0.03160    0.23510    1.000
    H27      H        0.98220    0.00980    0.29120    1.000
    C41      C        0.43760    0.72790    0.35260    1.000
    H28      H        0.41000    0.68400    0.30350    1.000
    O36      O        0.83700    0.04820    0.49580    1.000
    C42      C        0.99250    0.09040    0.03870    1.000
    H29      H        0.93610    0.10750    0.95990    1.000
    C43      C        0.77640    0.03760    0.07410    1.000
    C44      C        0.93180    0.05450    0.11710    1.000
    C45      C        0.40510    0.79900    0.29860    1.000
    H30      H        0.35440    0.80330    0.21350    1.000
    C46      C        0.51140    0.72090    0.47960    1.000
    C47      C        0.16180    0.04080    0.26880    1.000
    H31      H        0.22030    0.02360    0.34660    1.000
    C48      C        0.51970    0.85810    0.49310    1.000
    H32      H        0.54910    0.90270    0.53990    1.000
