# CIF file generated by openbabel 3.1.0, see https://openbabel.org
data_I
_chemical_name_common 'image0'
_cell_length_a 22.696
_cell_length_b 12.696
_cell_length_c 16.126
_cell_angle_alpha 90
_cell_angle_beta 90
_cell_angle_gamma 90
_space_group_name_H-M_alt 'P 1'
_space_group_name_Hall 'P 1'
loop_
    _symmetry_equiv_pos_as_xyz
    x,y,z
loop_
    _atom_site_label
    _atom_site_type_symbol
    _atom_site_fract_x
    _atom_site_fract_y
    _atom_site_fract_z
    _atom_site_occupancy
    Fe1      Fe       0.51950    0.28810    0.11868    1.000
    Fe2      Fe       0.26261    0.39886    0.00064    1.000
    N1       N        0.48950    0.11730    0.13710    1.000
    N2       N        0.58975    0.19230    0.06630    1.000
    N3       N        0.62910    0.02950    0.05730    1.000
    N4       N        0.67060    0.10110    0.03290    1.000
    N5       N        0.74080    0.26640    0.00320    1.000
    N6       N        0.67167    0.38860    0.02500    1.000
    N7       N        0.72420    0.43790    0.00770    1.000
    N8       N        0.29190    0.37770    0.86720    1.000
    N9       N        0.35310    0.35880    0.00850    1.000
    N10      N        0.43650    0.30720    0.94500    1.000
    N11      N        0.44652    0.30910    0.02820    1.000
    N12      N        0.34720    0.36750    0.20060    1.000
    N13      N        0.44325    0.33170    0.19590    1.000
    N14      N        0.42740    0.33710    0.27810    1.000
    C1       C        0.43800    0.08330    0.16550    1.000
    H1       H        0.41160    0.13300    0.18570    1.000
    C2       C        0.42130    0.97950    0.16710    1.000
    H2       H        0.38480    0.96010    0.18840    1.000
    C3       C        0.45920    0.90500    0.13690    1.000
    H3       H        0.44850    0.83430    0.13630    1.000
    C4       C        0.51380    0.93660    0.10710    1.000
    H4       H        0.54100    0.88780    0.08760    1.000
    C5       C        0.52640    0.04430    0.10740    1.000
    C6       C        0.58230    0.08700    0.07600    1.000
    C7       C        0.64580    0.19630    0.04040    1.000
    C8       C        0.68360    0.28670    0.02200    1.000
    C9       C        0.76410    0.36290    0.99690    1.000
    H5       H        0.80370    0.37590    0.98630    1.000
    C10      C        0.25880    0.38840    0.79960    1.000
    H6       H        0.21990    0.41010    0.80610    1.000
    C11      C        0.27920    0.36910    0.72060    1.000
    H7       H        0.25480    0.37660    0.67470    1.000
    C12      C        0.33780    0.33810    0.71190    1.000
    H8       H        0.35320    0.32470    0.65950    1.000
    C13      C        0.37290    0.32710    0.78120    1.000
    H9       H        0.41220    0.30760    0.77620    1.000
    C14      C        0.34820    0.34600    0.85840    1.000
    C15      C        0.38140    0.33680    0.93660    1.000
    C16      C        0.39640    0.33950    0.06430    1.000
    C17      C        0.39430    0.35030    0.15400    1.000
    C18      C        0.37090    0.35950    0.27650    1.000
    H10      H        0.34890    0.36900    0.32450    1.000
    Fe3      Fe       0.98050    0.21190    0.61868    1.000
    Fe4      Fe       0.23739    0.10114    0.50064    1.000
    N15      N        0.01050    0.38270    0.63710    1.000
    N16      N        0.91025    0.30770    0.56630    1.000
    N17      N        0.87090    0.47050    0.55730    1.000
    N18      N        0.82940    0.39890    0.53290    1.000
    N19      N        0.75920    0.23360    0.50320    1.000
    N20      N        0.82833    0.11140    0.52500    1.000
    N21      N        0.77580    0.06210    0.50770    1.000
    N22      N        0.20810    0.12230    0.36720    1.000
    N23      N        0.14690    0.14120    0.50850    1.000
    N24      N        0.06350    0.19280    0.44500    1.000
    N25      N        0.05348    0.19090    0.52820    1.000
    N26      N        0.15280    0.13250    0.70060    1.000
    N27      N        0.05675    0.16830    0.69590    1.000
    N28      N        0.07260    0.16290    0.77810    1.000
    C19      C        0.06200    0.41670    0.66550    1.000
    H11      H        0.08840    0.36700    0.68570    1.000
    C20      C        0.07870    0.52050    0.66710    1.000
    H12      H        0.11520    0.53990    0.68840    1.000
    C21      C        0.04080    0.59500    0.63690    1.000
    H13      H        0.05150    0.66570    0.63630    1.000
    C22      C        0.98620    0.56340    0.60710    1.000
    H14      H        0.95900    0.61220    0.58760    1.000
    C23      C        0.97360    0.45570    0.60740    1.000
    C24      C        0.91770    0.41300    0.57600    1.000
    C25      C        0.85420    0.30370    0.54040    1.000
    C26      C        0.81640    0.21330    0.52200    1.000
    C27      C        0.73590    0.13710    0.49690    1.000
    H15      H        0.69630    0.12410    0.48630    1.000
    C28      C        0.24120    0.11160    0.29960    1.000
    H16      H        0.28010    0.08990    0.30610    1.000
    C29      C        0.22080    0.13090    0.22060    1.000
    H17      H        0.24520    0.12340    0.17470    1.000
    C30      C        0.16220    0.16190    0.21190    1.000
    H18      H        0.14680    0.17530    0.15950    1.000
    C31      C        0.12710    0.17290    0.28120    1.000
    H19      H        0.08780    0.19240    0.27620    1.000
    C32      C        0.15180    0.15400    0.35840    1.000
    C33      C        0.11860    0.16320    0.43660    1.000
    C34      C        0.10360    0.16050    0.56430    1.000
    C35      C        0.10570    0.14970    0.65400    1.000
    C36      C        0.12910    0.14050    0.77650    1.000
    H20      H        0.15110    0.13100    0.82450    1.000
    Fe5      Fe       0.48050    0.28810    0.38132    1.000
    Fe6      Fe       0.73739    0.39886    0.49936    1.000
    N29      N        0.51050    0.11730    0.36290    1.000
    N30      N        0.41025    0.19230    0.43370    1.000
    N31      N        0.37090    0.02950    0.44270    1.000
    N32      N        0.32940    0.10110    0.46710    1.000
    N33      N        0.25920    0.26640    0.49680    1.000
    N34      N        0.32833    0.38860    0.47500    1.000
    N35      N        0.27580    0.43790    0.49230    1.000
    N36      N        0.70810    0.37770    0.63280    1.000
    N37      N        0.64690    0.35880    0.49150    1.000
    N38      N        0.56350    0.30720    0.55500    1.000
    N39      N        0.55348    0.30910    0.47180    1.000
    N40      N        0.65280    0.36750    0.29940    1.000
    N41      N        0.55675    0.33170    0.30410    1.000
    N42      N        0.57260    0.33710    0.22190    1.000
    C37      C        0.56200    0.08330    0.33450    1.000
    H21      H        0.58840    0.13300    0.31430    1.000
    C38      C        0.57870    0.97950    0.33290    1.000
    H22      H        0.61520    0.96010    0.31160    1.000
    C39      C        0.54080    0.90500    0.36310    1.000
    H23      H        0.55150    0.83430    0.36370    1.000
    C40      C        0.48620    0.93660    0.39290    1.000
    H24      H        0.45900    0.88780    0.41240    1.000
    C41      C        0.47360    0.04430    0.39260    1.000
    C42      C        0.41770    0.08700    0.42400    1.000
    C43      C        0.35420    0.19630    0.45960    1.000
    C44      C        0.31640    0.28670    0.47800    1.000
    C45      C        0.23590    0.36290    0.50310    1.000
    H25      H        0.19630    0.37590    0.51370    1.000
    C46      C        0.74120    0.38840    0.70040    1.000
    H26      H        0.78010    0.41010    0.69390    1.000
    C47      C        0.72080    0.36910    0.77940    1.000
    H27      H        0.74520    0.37660    0.82530    1.000
    C48      C        0.66220    0.33810    0.78810    1.000
    H28      H        0.64680    0.32470    0.84050    1.000
    C49      C        0.62710    0.32710    0.71880    1.000
    H29      H        0.58780    0.30760    0.72380    1.000
    C50      C        0.65180    0.34600    0.64160    1.000
    C51      C        0.61860    0.33680    0.56340    1.000
    C52      C        0.60360    0.33950    0.43570    1.000
    C53      C        0.60570    0.35030    0.34600    1.000
    C54      C        0.62910    0.35950    0.22350    1.000
    H30      H        0.65110    0.36900    0.17550    1.000
    Fe7      Fe       0.01950    0.21190    0.88132    1.000
    Fe8      Fe       0.76261    0.10114    0.99936    1.000
    N43      N        0.98950    0.38270    0.86290    1.000
    N44      N        0.08975    0.30770    0.93370    1.000
    N45      N        0.12910    0.47050    0.94270    1.000
    N46      N        0.17060    0.39890    0.96710    1.000
    N47      N        0.24080    0.23360    0.99680    1.000
    N48      N        0.17167    0.11140    0.97500    1.000
    N49      N        0.22420    0.06210    0.99230    1.000
    N50      N        0.79190    0.12230    0.13280    1.000
    N51      N        0.85310    0.14120    0.99150    1.000
    N52      N        0.93650    0.19280    0.05500    1.000
    N53      N        0.94652    0.19090    0.97180    1.000
    N54      N        0.84720    0.13250    0.79940    1.000
    N55      N        0.94325    0.16830    0.80410    1.000
    N56      N        0.92740    0.16290    0.72190    1.000
    C55      C        0.93800    0.41670    0.83450    1.000
    H31      H        0.91160    0.36700    0.81430    1.000
    C56      C        0.92130    0.52050    0.83290    1.000
    H32      H        0.88480    0.53990    0.81160    1.000
    C57      C        0.95920    0.59500    0.86310    1.000
    H33      H        0.94850    0.66570    0.86370    1.000
    C58      C        0.01380    0.56340    0.89290    1.000
    H34      H        0.04100    0.61220    0.91240    1.000
    C59      C        0.02640    0.45570    0.89260    1.000
    C60      C        0.08230    0.41300    0.92400    1.000
    C61      C        0.14580    0.30370    0.95960    1.000
    C62      C        0.18360    0.21330    0.97800    1.000
    C63      C        0.26410    0.13710    0.00310    1.000
    H35      H        0.30370    0.12410    0.01370    1.000
    C64      C        0.75880    0.11160    0.20040    1.000
    H36      H        0.71990    0.08990    0.19390    1.000
    C65      C        0.77920    0.13090    0.27940    1.000
    H37      H        0.75480    0.12340    0.32530    1.000
    C66      C        0.83780    0.16190    0.28810    1.000
    H38      H        0.85320    0.17530    0.34050    1.000
    C67      C        0.87290    0.17290    0.21880    1.000
    H39      H        0.91220    0.19240    0.22380    1.000
    C68      C        0.84820    0.15400    0.14160    1.000
    C69      C        0.88140    0.16320    0.06340    1.000
    C70      C        0.89640    0.16050    0.93570    1.000
    C71      C        0.89430    0.14970    0.84600    1.000
    C72      C        0.87090    0.14050    0.72350    1.000
    H40      H        0.84890    0.13100    0.67550    1.000
    Fe9      Fe       0.48050    0.71190    0.88132    1.000
    Fe10     Fe       0.73739    0.60114    0.99936    1.000
    N57      N        0.51050    0.88270    0.86290    1.000
    N58      N        0.41025    0.80770    0.93370    1.000
    N59      N        0.37090    0.97050    0.94270    1.000
    N60      N        0.32940    0.89890    0.96710    1.000
    N61      N        0.25920    0.73360    0.99680    1.000
    N62      N        0.32833    0.61140    0.97500    1.000
    N63      N        0.27580    0.56210    0.99230    1.000
    N64      N        0.70810    0.62230    0.13280    1.000
    N65      N        0.64690    0.64120    0.99150    1.000
    N66      N        0.56350    0.69280    0.05500    1.000
    N67      N        0.55348    0.69090    0.97180    1.000
    N68      N        0.65280    0.63250    0.79940    1.000
    N69      N        0.55675    0.66830    0.80410    1.000
    N70      N        0.57260    0.66290    0.72190    1.000
    C73      C        0.56200    0.91670    0.83450    1.000
    H41      H        0.58840    0.86700    0.81430    1.000
    C74      C        0.57870    0.02050    0.83290    1.000
    H42      H        0.61520    0.03990    0.81160    1.000
    C75      C        0.54080    0.09500    0.86310    1.000
    H43      H        0.55150    0.16570    0.86370    1.000
    C76      C        0.48620    0.06340    0.89290    1.000
    H44      H        0.45900    0.11220    0.91240    1.000
    C77      C        0.47360    0.95570    0.89260    1.000
    C78      C        0.41770    0.91300    0.92400    1.000
    C79      C        0.35420    0.80370    0.95960    1.000
    C80      C        0.31640    0.71330    0.97800    1.000
    C81      C        0.23590    0.63710    0.00310    1.000
    H45      H        0.19630    0.62410    0.01370    1.000
    C82      C        0.74120    0.61160    0.20040    1.000
    H46      H        0.78010    0.58990    0.19390    1.000
    C83      C        0.72080    0.63090    0.27940    1.000
    H47      H        0.74520    0.62340    0.32530    1.000
    C84      C        0.66220    0.66190    0.28810    1.000
    H48      H        0.64680    0.67530    0.34050    1.000
    C85      C        0.62710    0.67290    0.21880    1.000
    H49      H        0.58780    0.69240    0.22380    1.000
    C86      C        0.65180    0.65400    0.14160    1.000
    C87      C        0.61860    0.66320    0.06340    1.000
    C88      C        0.60360    0.66050    0.93570    1.000
    C89      C        0.60570    0.64970    0.84600    1.000
    C90      C        0.62910    0.64050    0.72350    1.000
    H50      H        0.65110    0.63100    0.67550    1.000
    Fe11     Fe       0.01950    0.78810    0.38132    1.000
    Fe12     Fe       0.76261    0.89886    0.49936    1.000
    N71      N        0.98950    0.61730    0.36290    1.000
    N72      N        0.08975    0.69230    0.43370    1.000
    N73      N        0.12910    0.52950    0.44270    1.000
    N74      N        0.17060    0.60110    0.46710    1.000
    N75      N        0.24080    0.76640    0.49680    1.000
    N76      N        0.17167    0.88860    0.47500    1.000
    N77      N        0.22420    0.93790    0.49230    1.000
    N78      N        0.79190    0.87770    0.63280    1.000
    N79      N        0.85310    0.85880    0.49150    1.000
    N80      N        0.93650    0.80720    0.55500    1.000
    N81      N        0.94652    0.80910    0.47180    1.000
    N82      N        0.84720    0.86750    0.29940    1.000
    N83      N        0.94325    0.83170    0.30410    1.000
    N84      N        0.92740    0.83710    0.22190    1.000
    C91      C        0.93800    0.58330    0.33450    1.000
    H51      H        0.91160    0.63300    0.31430    1.000
    C92      C        0.92130    0.47950    0.33290    1.000
    H52      H        0.88480    0.46010    0.31160    1.000
    C93      C        0.95920    0.40500    0.36310    1.000
    H53      H        0.94850    0.33430    0.36370    1.000
    C94      C        0.01380    0.43660    0.39290    1.000
    H54      H        0.04100    0.38780    0.41240    1.000
    C95      C        0.02640    0.54430    0.39260    1.000
    C96      C        0.08230    0.58700    0.42400    1.000
    C97      C        0.14580    0.69630    0.45960    1.000
    C98      C        0.18360    0.78670    0.47800    1.000
    C99      C        0.26410    0.86290    0.50310    1.000
    H55      H        0.30370    0.87590    0.51370    1.000
    C100     C        0.75880    0.88840    0.70040    1.000
    H56      H        0.71990    0.91010    0.69390    1.000
    C101     C        0.77920    0.86910    0.77940    1.000
    H57      H        0.75480    0.87660    0.82530    1.000
    C102     C        0.83780    0.83810    0.78810    1.000
    H58      H        0.85320    0.82470    0.84050    1.000
    C103     C        0.87290    0.82710    0.71880    1.000
    H59      H        0.91220    0.80760    0.72380    1.000
    C104     C        0.84820    0.84600    0.64160    1.000
    C105     C        0.88140    0.83680    0.56340    1.000
    C106     C        0.89640    0.83950    0.43570    1.000
    C107     C        0.89430    0.85030    0.34600    1.000
    C108     C        0.87090    0.85950    0.22350    1.000
    H60      H        0.84890    0.86900    0.17550    1.000
    Fe13     Fe       0.51950    0.71190    0.61868    1.000
    Fe14     Fe       0.26261    0.60114    0.50064    1.000
    N85      N        0.48950    0.88270    0.63710    1.000
    N86      N        0.58975    0.80770    0.56630    1.000
    N87      N        0.62910    0.97050    0.55730    1.000
    N88      N        0.67060    0.89890    0.53290    1.000
    N89      N        0.74080    0.73360    0.50320    1.000
    N90      N        0.67167    0.61140    0.52500    1.000
    N91      N        0.72420    0.56210    0.50770    1.000
    N92      N        0.29190    0.62230    0.36720    1.000
    N93      N        0.35310    0.64120    0.50850    1.000
    N94      N        0.43650    0.69280    0.44500    1.000
    N95      N        0.44652    0.69090    0.52820    1.000
    N96      N        0.34720    0.63250    0.70060    1.000
    N97      N        0.44325    0.66830    0.69590    1.000
    N98      N        0.42740    0.66290    0.77810    1.000
    C109     C        0.43800    0.91670    0.66550    1.000
    H61      H        0.41160    0.86700    0.68570    1.000
    C110     C        0.42130    0.02050    0.66710    1.000
    H62      H        0.38480    0.03990    0.68840    1.000
    C111     C        0.45920    0.09500    0.63690    1.000
    H63      H        0.44850    0.16570    0.63630    1.000
    C112     C        0.51380    0.06340    0.60710    1.000
    H64      H        0.54100    0.11220    0.58760    1.000
    C113     C        0.52640    0.95570    0.60740    1.000
    C114     C        0.58230    0.91300    0.57600    1.000
    C115     C        0.64580    0.80370    0.54040    1.000
    C116     C        0.68360    0.71330    0.52200    1.000
    C117     C        0.76410    0.63710    0.49690    1.000
    H65      H        0.80370    0.62410    0.48630    1.000
    C118     C        0.25880    0.61160    0.29960    1.000
    H66      H        0.21990    0.58990    0.30610    1.000
    C119     C        0.27920    0.63090    0.22060    1.000
    H67      H        0.25480    0.62340    0.17470    1.000
    C120     C        0.33780    0.66190    0.21190    1.000
    H68      H        0.35320    0.67530    0.15950    1.000
    C121     C        0.37290    0.67290    0.28120    1.000
    H69      H        0.41220    0.69240    0.27620    1.000
    C122     C        0.34820    0.65400    0.35840    1.000
    C123     C        0.38140    0.66320    0.43660    1.000
    C124     C        0.39640    0.66050    0.56430    1.000
    C125     C        0.39430    0.64970    0.65400    1.000
    C126     C        0.37090    0.64050    0.77650    1.000
    H70      H        0.34890    0.63100    0.82450    1.000
    Fe15     Fe       0.98050    0.78810    0.11868    1.000
    Fe16     Fe       0.23739    0.89886    0.00064    1.000
    N99      N        0.01050    0.61730    0.13710    1.000
    N100     N        0.91025    0.69230    0.06630    1.000
    N101     N        0.87090    0.52950    0.05730    1.000
    N102     N        0.82940    0.60110    0.03290    1.000
    N103     N        0.75920    0.76640    0.00320    1.000
    N104     N        0.82833    0.88860    0.02500    1.000
    N105     N        0.77580    0.93790    0.00770    1.000
    N106     N        0.20810    0.87770    0.86720    1.000
    N107     N        0.14690    0.85880    0.00850    1.000
    N108     N        0.06350    0.80720    0.94500    1.000
    N109     N        0.05348    0.80910    0.02820    1.000
    N110     N        0.15280    0.86750    0.20060    1.000
    N111     N        0.05675    0.83170    0.19590    1.000
    N112     N        0.07260    0.83710    0.27810    1.000
    C127     C        0.06200    0.58330    0.16550    1.000
    H71      H        0.08840    0.63300    0.18570    1.000
    C128     C        0.07870    0.47950    0.16710    1.000
    H72      H        0.11520    0.46010    0.18840    1.000
    C129     C        0.04080    0.40500    0.13690    1.000
    H73      H        0.05150    0.33430    0.13630    1.000
    C130     C        0.98620    0.43660    0.10710    1.000
    H74      H        0.95900    0.38780    0.08760    1.000
    C131     C        0.97360    0.54430    0.10740    1.000
    C132     C        0.91770    0.58700    0.07600    1.000
    C133     C        0.85420    0.69630    0.04040    1.000
    C134     C        0.81640    0.78670    0.02200    1.000
    C135     C        0.73590    0.86290    0.99690    1.000
    H75      H        0.69630    0.87590    0.98630    1.000
    C136     C        0.24120    0.88840    0.79960    1.000
    H76      H        0.28010    0.91010    0.80610    1.000
    C137     C        0.22080    0.86910    0.72060    1.000
    H77      H        0.24520    0.87660    0.67470    1.000
    C138     C        0.16220    0.83810    0.71190    1.000
    H78      H        0.14680    0.82470    0.65950    1.000
    C139     C        0.12710    0.82710    0.78120    1.000
    H79      H        0.08780    0.80760    0.77620    1.000
    C140     C        0.15180    0.84600    0.85840    1.000
    C141     C        0.11860    0.83680    0.93660    1.000
    C142     C        0.10360    0.83950    0.06430    1.000
    C143     C        0.10570    0.85030    0.15400    1.000
    C144     C        0.12910    0.85950    0.27650    1.000
    H80      H        0.15110    0.86900    0.32450    1.000
