# CIF file generated by openbabel 3.1.0, see https://openbabel.org
data_I
_chemical_name_common 'image0'
_cell_length_a 15.2768
_cell_length_b 10.2216
_cell_length_c 18.6279
_cell_angle_alpha 90
_cell_angle_beta 103.252
_cell_angle_gamma 90
_space_group_name_H-M_alt 'P 1'
_space_group_name_Hall 'P 1'
loop_
    _symmetry_equiv_pos_as_xyz
    x,y,z
loop_
    _atom_site_label
    _atom_site_type_symbol
    _atom_site_fract_x
    _atom_site_fract_y
    _atom_site_fract_z
    _atom_site_occupancy
    V1       V        0.74870    0.04535    0.21455    1.000
    V2       V        0.83739    0.11735    0.41440    1.000
    P1       P        0.66366    0.33190    0.16526    1.000
    P2       P        0.28813    0.37985    0.07714    1.000
    O1       O        0.73201    0.22150    0.16855    1.000
    O2       O        0.29047    0.50280    0.12522    1.000
    O3       O        0.67390    0.39950    0.23989    1.000
    O4       O        0.79070    0.14220    0.30808    1.000
    O5       O        0.67346    0.42700    0.10409    1.000
    O6       O        0.20484    0.29820    0.07682    1.000
    O7       O        0.29221    0.42870    0.00033    1.000
    C1       C        0.55380    0.26030    0.14320    1.000
    H1       H        0.54930    0.20380    0.09930    1.000
    H2       H        0.54770    0.20310    0.18470    1.000
    C2       C        0.38560    0.28090    0.11170    1.000
    H3       H        0.37880    0.23780    0.15770    1.000
    H4       H        0.38810    0.21130    0.07530    1.000
    C3       C        0.47470    0.35560    0.12770    1.000
    H5       H        0.47780    0.41100    0.08470    1.000
    H6       H        0.47810    0.41340    0.17080    1.000
    H7       H        0.78800    0.20000    0.30300    1.000
    V3       V        0.24870    0.54535    0.21455    1.000
    V4       V        0.33739    0.61735    0.41440    1.000
    P3       P        0.16366    0.83190    0.16526    1.000
    P4       P        0.78813    0.87985    0.07714    1.000
    O8       O        0.23201    0.72150    0.16855    1.000
    O9       O        0.79047    0.00280    0.12522    1.000
    O10      O        0.17390    0.89950    0.23989    1.000
    O11      O        0.29070    0.64220    0.30808    1.000
    O12      O        0.17346    0.92700    0.10409    1.000
    O13      O        0.70484    0.79820    0.07682    1.000
    O14      O        0.79221    0.92870    0.00033    1.000
    C4       C        0.05380    0.76030    0.14320    1.000
    H8       H        0.04930    0.70380    0.09930    1.000
    H9       H        0.04770    0.70310    0.18470    1.000
    C5       C        0.88560    0.78090    0.11170    1.000
    H10      H        0.87880    0.73780    0.15770    1.000
    H11      H        0.88810    0.71130    0.07530    1.000
    C6       C        0.97470    0.85560    0.12770    1.000
    H12      H        0.97780    0.91100    0.08470    1.000
    H13      H        0.97810    0.91340    0.17080    1.000
    H14      H        0.28800    0.70000    0.30300    1.000
    V5       V        0.25130    0.04535    0.28545    1.000
    V6       V        0.16261    0.11735    0.08560    1.000
    P5       P        0.33634    0.33190    0.33474    1.000
    P6       P        0.71187    0.37985    0.42286    1.000
    O15      O        0.26799    0.22150    0.33145    1.000
    O16      O        0.70953    0.50280    0.37478    1.000
    O17      O        0.32610    0.39950    0.26011    1.000
    O18      O        0.20930    0.14220    0.19192    1.000
    O19      O        0.32654    0.42700    0.39591    1.000
    O20      O        0.79516    0.29820    0.42318    1.000
    O21      O        0.70779    0.42870    0.49967    1.000
    C7       C        0.44620    0.26030    0.35680    1.000
    H15      H        0.45070    0.20380    0.40070    1.000
    H16      H        0.45230    0.20310    0.31530    1.000
    C8       C        0.61440    0.28090    0.38830    1.000
    H17      H        0.62120    0.23780    0.34230    1.000
    H18      H        0.61190    0.21130    0.42470    1.000
    C9       C        0.52530    0.35560    0.37230    1.000
    H19      H        0.52220    0.41100    0.41530    1.000
    H20      H        0.52190    0.41340    0.32920    1.000
    H21      H        0.21200    0.20000    0.19700    1.000
    V7       V        0.75130    0.54535    0.28545    1.000
    V8       V        0.66261    0.61735    0.08560    1.000
    P7       P        0.83634    0.83190    0.33474    1.000
    P8       P        0.21187    0.87985    0.42286    1.000
    O22      O        0.76799    0.72150    0.33145    1.000
    O23      O        0.20953    0.00280    0.37478    1.000
    O24      O        0.82610    0.89950    0.26011    1.000
    O25      O        0.70930    0.64220    0.19192    1.000
    O26      O        0.82654    0.92700    0.39591    1.000
    O27      O        0.29516    0.79820    0.42318    1.000
    O28      O        0.20779    0.92870    0.49967    1.000
    C10      C        0.94620    0.76030    0.35680    1.000
    H22      H        0.95070    0.70380    0.40070    1.000
    H23      H        0.95230    0.70310    0.31530    1.000
    C11      C        0.11440    0.78090    0.38830    1.000
    H24      H        0.12120    0.73780    0.34230    1.000
    H25      H        0.11190    0.71130    0.42470    1.000
    C12      C        0.02530    0.85560    0.37230    1.000
    H26      H        0.02220    0.91100    0.41530    1.000
    H27      H        0.02190    0.91340    0.32920    1.000
    H28      H        0.71200    0.70000    0.19700    1.000
    V9       V        0.25130    0.95465    0.78545    1.000
    V10      V        0.16261    0.88265    0.58560    1.000
    P9       P        0.33634    0.66810    0.83474    1.000
    P10      P        0.71187    0.62015    0.92286    1.000
    O29      O        0.26799    0.77850    0.83145    1.000
    O30      O        0.70953    0.49720    0.87478    1.000
    O31      O        0.32610    0.60050    0.76011    1.000
    O32      O        0.20930    0.85780    0.69192    1.000
    O33      O        0.32654    0.57300    0.89591    1.000
    O34      O        0.79516    0.70180    0.92318    1.000
    O35      O        0.70779    0.57130    0.99967    1.000
    C13      C        0.44620    0.73970    0.85680    1.000
    H29      H        0.45070    0.79620    0.90070    1.000
    H30      H        0.45230    0.79690    0.81530    1.000
    C14      C        0.61440    0.71910    0.88830    1.000
    H31      H        0.62120    0.76220    0.84230    1.000
    H32      H        0.61190    0.78870    0.92470    1.000
    C15      C        0.52530    0.64440    0.87230    1.000
    H33      H        0.52220    0.58900    0.91530    1.000
    H34      H        0.52190    0.58660    0.82920    1.000
    H35      H        0.21200    0.80000    0.69700    1.000
    V11      V        0.75130    0.45465    0.78545    1.000
    V12      V        0.66261    0.38265    0.58560    1.000
    P11      P        0.83634    0.16810    0.83474    1.000
    P12      P        0.21187    0.12015    0.92286    1.000
    O36      O        0.76799    0.27850    0.83145    1.000
    O37      O        0.20953    0.99720    0.87478    1.000
    O38      O        0.82610    0.10050    0.76011    1.000
    O39      O        0.70930    0.35780    0.69192    1.000
    O40      O        0.82654    0.07300    0.89591    1.000
    O41      O        0.29516    0.20180    0.92318    1.000
    O42      O        0.20779    0.07130    0.99967    1.000
    C16      C        0.94620    0.23970    0.85680    1.000
    H36      H        0.95070    0.29620    0.90070    1.000
    H37      H        0.95230    0.29690    0.81530    1.000
    C17      C        0.11440    0.21910    0.88830    1.000
    H38      H        0.12120    0.26220    0.84230    1.000
    H39      H        0.11190    0.28870    0.92470    1.000
    C18      C        0.02530    0.14440    0.87230    1.000
    H40      H        0.02220    0.08900    0.91530    1.000
    H41      H        0.02190    0.08660    0.82920    1.000
    H42      H        0.71200    0.30000    0.69700    1.000
    V13      V        0.74870    0.95465    0.71455    1.000
    V14      V        0.83739    0.88265    0.91440    1.000
    P13      P        0.66366    0.66810    0.66526    1.000
    P14      P        0.28813    0.62015    0.57714    1.000
    O43      O        0.73201    0.77850    0.66855    1.000
    O44      O        0.29047    0.49720    0.62522    1.000
    O45      O        0.67390    0.60050    0.73989    1.000
    O46      O        0.79070    0.85780    0.80808    1.000
    O47      O        0.67346    0.57300    0.60409    1.000
    O48      O        0.20484    0.70180    0.57682    1.000
    O49      O        0.29221    0.57130    0.50033    1.000
    C19      C        0.55380    0.73970    0.64320    1.000
    H43      H        0.54930    0.79620    0.59930    1.000
    H44      H        0.54770    0.79690    0.68470    1.000
    C20      C        0.38560    0.71910    0.61170    1.000
    H45      H        0.37880    0.76220    0.65770    1.000
    H46      H        0.38810    0.78870    0.57530    1.000
    C21      C        0.47470    0.64440    0.62770    1.000
    H47      H        0.47780    0.58900    0.58470    1.000
    H48      H        0.47810    0.58660    0.67080    1.000
    H49      H        0.78800    0.80000    0.80300    1.000
    V15      V        0.24870    0.45465    0.71455    1.000
    V16      V        0.33739    0.38265    0.91440    1.000
    P15      P        0.16366    0.16810    0.66526    1.000
    P16      P        0.78813    0.12015    0.57714    1.000
    O50      O        0.23201    0.27850    0.66855    1.000
    O51      O        0.79047    0.99720    0.62522    1.000
    O52      O        0.17390    0.10050    0.73989    1.000
    O53      O        0.29070    0.35780    0.80808    1.000
    O54      O        0.17346    0.07300    0.60409    1.000
    O55      O        0.70484    0.20180    0.57682    1.000
    O56      O        0.79221    0.07130    0.50033    1.000
    C22      C        0.05380    0.23970    0.64320    1.000
    H50      H        0.04930    0.29620    0.59930    1.000
    H51      H        0.04770    0.29690    0.68470    1.000
    C23      C        0.88560    0.21910    0.61170    1.000
    H52      H        0.87880    0.26220    0.65770    1.000
    H53      H        0.88810    0.28870    0.57530    1.000
    C24      C        0.97470    0.14440    0.62770    1.000
    H54      H        0.97780    0.08900    0.58470    1.000
    H55      H        0.97810    0.08660    0.67080    1.000
    H56      H        0.28800    0.30000    0.80300    1.000
