# CIF file generated by openbabel 3.1.0, see https://openbabel.org
data_I
_chemical_name_common 'RESWOC_clean'
_cell_length_a 11.671
_cell_length_b 11.8916
_cell_length_c 14.305
_cell_angle_alpha 110.633
_cell_angle_beta 99.92
_cell_angle_gamma 101.351
_space_group_name_H-M_alt 'P 1'
_space_group_name_Hall 'P 1'
loop_
    _symmetry_equiv_pos_as_xyz
    x,y,z
loop_
    _atom_site_label
    _atom_site_type_symbol
    _atom_site_fract_x
    _atom_site_fract_y
    _atom_site_fract_z
    _atom_site_occupancy
    Er1      Er       0.90152    0.02780    0.89531    1.000
    Er2      Er       0.58430    0.91840    0.56925    1.000
    Er3      Er       0.09848    0.97220    0.10469    1.000
    Er4      Er       0.41570    0.08160    0.43075    1.000
    C1       C        0.89490    0.75020    0.90150    1.000
    C2       C        0.82980    0.61210    0.84530    1.000
    C3       C        0.71070    0.56670    0.84290    1.000
    C4       C        0.64680    0.44300    0.78650    1.000
    C5       C        0.70180    0.35850    0.72980    1.000
    C6       C        0.82180    0.40360    0.73380    1.000
    C7       C        0.88480    0.52850    0.79010    1.000
    C8       C        0.62810    0.22820    0.65690    1.000
    C9       C        0.14380    0.03270    0.89110    1.000
    C10      C        0.26610    0.02010    0.87970    1.000
    C11      C        0.29900    0.91170    0.86950    1.000
    C12      C        0.41150    0.90020    0.85550    1.000
    C13      C        0.49440    0.99580    0.85010    1.000
    C14      C        0.46220    0.10390    0.86010    1.000
    C15      C        0.35090    0.11610    0.87460    1.000
    C16      C        0.61440    0.98320    0.82790    1.000
    C17      C        0.86880    0.93420    0.64100    1.000
    C18      C        0.98590    0.92690    0.61250    1.000
    C19      C        0.01700    0.81640    0.58280    1.000
    C20      C        0.13050    0.81070    0.57050    1.000
    C21      C        0.22030    0.91820    0.58720    1.000
    C22      C        0.18770    0.02960    0.61600    1.000
    C23      C        0.07350    0.03320    0.62620    1.000
    C24      C        0.34330    0.91250    0.57700    1.000
    C25      C        0.10510    0.24980    0.09850    1.000
    C26      C        0.17020    0.38790    0.15470    1.000
    C27      C        0.28930    0.43330    0.15710    1.000
    C28      C        0.35320    0.55700    0.21350    1.000
    C29      C        0.29820    0.64150    0.27020    1.000
    C30      C        0.17820    0.59640    0.26620    1.000
    C31      C        0.11520    0.47150    0.20990    1.000
    C32      C        0.37190    0.77180    0.34310    1.000
    C33      C        0.85620    0.96730    0.10890    1.000
    C34      C        0.73390    0.97990    0.12030    1.000
    C35      C        0.70100    0.08830    0.13050    1.000
    C36      C        0.58850    0.09980    0.14450    1.000
    C37      C        0.50560    0.00420    0.14990    1.000
    C38      C        0.53780    0.89610    0.13990    1.000
    C39      C        0.64910    0.88390    0.12540    1.000
    C40      C        0.38560    0.01680    0.17210    1.000
    C41      C        0.13120    0.06580    0.35900    1.000
    C42      C        0.01410    0.07310    0.38750    1.000
    C43      C        0.98300    0.18360    0.41720    1.000
    C44      C        0.86950    0.18930    0.42950    1.000
    C45      C        0.77970    0.08180    0.41280    1.000
    C46      C        0.81230    0.97040    0.38400    1.000
    C47      C        0.92650    0.96680    0.37380    1.000
    C48      C        0.65670    0.08750    0.42300    1.000
    O1       O        0.84910    0.81870    0.86650    1.000
    O2       O        0.98410    0.78230    0.97710    1.000
    O3       O        0.66540    0.13860    0.66700    1.000
    O4       O        0.53880    0.22220    0.59090    1.000
    O5       O        0.09180    0.08870    0.84680    1.000
    O6       O        0.09170    0.98150    0.94320    1.000
    O7       O        0.70200    0.00650    0.90290    1.000
    O8       O        0.61820    0.95360    0.73690    1.000
    O9       O        0.86230    0.91970    0.72180    1.000
    O10      O        0.78830    0.95090    0.58100    1.000
    O11      O        0.40620    0.99270    0.55140    1.000
    O12      O        0.38750    0.83350    0.59580    1.000
    O13      O        0.15090    0.18130    0.13350    1.000
    O14      O        0.01590    0.21770    0.02290    1.000
    O15      O        0.33460    0.86140    0.33300    1.000
    O16      O        0.46120    0.77780    0.40910    1.000
    O17      O        0.90820    0.91130    0.15320    1.000
    O18      O        0.90830    0.01850    0.05680    1.000
    O19      O        0.29800    0.99350    0.09710    1.000
    O20      O        0.38180    0.04640    0.26310    1.000
    O21      O        0.13770    0.08030    0.27820    1.000
    O22      O        0.21170    0.04910    0.41900    1.000
    O23      O        0.59380    0.00730    0.44860    1.000
    O24      O        0.61250    0.16650    0.40420    1.000
    F1       F        0.65300    0.64380    0.89540    1.000
    F2       F        0.53040    0.40480    0.78520    1.000
    F3       F        0.87690    0.32760    0.67750    1.000
    F4       F        0.99850    0.56850    0.78600    1.000
    F5       F        0.22110    0.81310    0.86910    1.000
    F6       F        0.43840    0.79300    0.84500    1.000
    F7       F        0.54020    0.19930    0.85470    1.000
    F8       F        0.32690    0.22400    0.88480    1.000
    F9       F        0.93520    0.71040    0.56660    1.000
    F10      F        0.15270    0.69960    0.54050    1.000
    F11      F        0.27010    0.13780    0.63970    1.000
    F12      F        0.04780    0.14310    0.65510    1.000
    F13      F        0.34700    0.35620    0.10460    1.000
    F14      F        0.46960    0.59520    0.21480    1.000
    F15      F        0.12310    0.67240    0.32250    1.000
    F16      F        0.00150    0.43150    0.21400    1.000
    F17      F        0.77890    0.18690    0.13090    1.000
    F18      F        0.56160    0.20700    0.15500    1.000
    F19      F        0.45980    0.80070    0.14530    1.000
    F20      F        0.67310    0.77600    0.11520    1.000
    F21      F        0.06480    0.28960    0.43340    1.000
    F22      F        0.84730    0.30040    0.45950    1.000
    F23      F        0.72990    0.86220    0.36030    1.000
    F24      F        0.95220    0.85690    0.34490    1.000
