# CIF file generated by openbabel 3.1.0, see https://openbabel.org
data_I
_chemical_name_common 'image0'
_cell_length_a 10.923
_cell_length_b 15.424
_cell_length_c 15.037
_cell_angle_alpha 90
_cell_angle_beta 105.67
_cell_angle_gamma 90
_space_group_name_H-M_alt 'P 1'
_space_group_name_Hall 'P 1'
loop_
    _symmetry_equiv_pos_as_xyz
    x,y,z
loop_
    _atom_site_label
    _atom_site_type_symbol
    _atom_site_fract_x
    _atom_site_fract_y
    _atom_site_fract_z
    _atom_site_occupancy
    Bi1      Bi       0.52917    0.34960    0.03254    1.000
    Bi2      Bi       0.04259    0.53525    0.15542    1.000
    K1       K        0.78100    0.19070    0.72540    1.000
    O1       O        0.02600    0.37600    0.15900    1.000
    O2       O        0.92100    0.43800    0.02900    1.000
    O3       O        0.52000    0.21300    0.94700    1.000
    O4       O        0.57300    0.08000    0.92100    1.000
    O5       O        0.62700    0.38400    0.91700    1.000
    O6       O        0.76400    0.32100    0.85200    1.000
    O7       O        0.71800    0.30300    0.07900    1.000
    O8       O        0.61800    0.49800    0.07900    1.000
    O9       O        0.60400    0.40700    0.18800    1.000
    O10      O        0.03600    0.74600    0.36600    1.000
    O11      O        0.06700    0.65800    0.26100    1.000
    O12      O        0.87300    0.62000    0.08400    1.000
    O13      O        0.72200    0.69500    0.12300    1.000
    O14      O        0.90000    0.50730    0.22240    1.000
    C1       C        0.95800    0.37200    0.08000    1.000
    C2       C        0.91600    0.28200    0.04200    1.000
    C3       C        0.77100    0.27600    0.00800    1.000
    C4       C        0.74100    0.17800    0.98500    1.000
    C5       C        0.60400    0.15600    0.95000    1.000
    C6       C        0.72200    0.33000    0.92300    1.000
    C7       C        0.63600    0.48100    0.16200    1.000
    C8       C        0.69300    0.54900    0.23500    1.000
    C9       C        0.82200    0.58100    0.22700    1.000
    C10      C        0.87900    0.63600    0.31200    1.000
    C11      C        0.00000    0.68400    0.31200    1.000
    C12      C        0.80300    0.63600    0.13800    1.000
    Bi3      Bi       0.97083    0.84960    0.46746    1.000
    Bi4      Bi       0.45741    0.03525    0.34458    1.000
    K2       K        0.71900    0.69070    0.77460    1.000
    O15      O        0.47400    0.87600    0.34100    1.000
    O16      O        0.57900    0.93800    0.47100    1.000
    O17      O        0.98000    0.71300    0.55300    1.000
    O18      O        0.92700    0.58000    0.57900    1.000
    O19      O        0.87300    0.88400    0.58300    1.000
    O20      O        0.73600    0.82100    0.64800    1.000
    O21      O        0.78200    0.80300    0.42100    1.000
    O22      O        0.88200    0.99800    0.42100    1.000
    O23      O        0.89600    0.90700    0.31200    1.000
    O24      O        0.46400    0.24600    0.13400    1.000
    O25      O        0.43300    0.15800    0.23900    1.000
    O26      O        0.62700    0.12000    0.41600    1.000
    O27      O        0.77800    0.19500    0.37700    1.000
    O28      O        0.60000    0.00730    0.27760    1.000
    C13      C        0.54200    0.87200    0.42000    1.000
    C14      C        0.58400    0.78200    0.45800    1.000
    C15      C        0.72900    0.77600    0.49200    1.000
    C16      C        0.75900    0.67800    0.51500    1.000
    C17      C        0.89600    0.65600    0.55000    1.000
    C18      C        0.77800    0.83000    0.57700    1.000
    C19      C        0.86400    0.98100    0.33800    1.000
    C20      C        0.80700    0.04900    0.26500    1.000
    C21      C        0.67800    0.08100    0.27300    1.000
    C22      C        0.62100    0.13600    0.18800    1.000
    C23      C        0.50000    0.18400    0.18800    1.000
    C24      C        0.69700    0.13600    0.36200    1.000
    Bi5      Bi       0.47083    0.65040    0.96746    1.000
    Bi6      Bi       0.95741    0.46475    0.84458    1.000
    K3       K        0.21900    0.80930    0.27460    1.000
    O29      O        0.97400    0.62400    0.84100    1.000
    O30      O        0.07900    0.56200    0.97100    1.000
    O31      O        0.48000    0.78700    0.05300    1.000
    O32      O        0.42700    0.92000    0.07900    1.000
    O33      O        0.37300    0.61600    0.08300    1.000
    O34      O        0.23600    0.67900    0.14800    1.000
    O35      O        0.28200    0.69700    0.92100    1.000
    O36      O        0.38200    0.50200    0.92100    1.000
    O37      O        0.39600    0.59300    0.81200    1.000
    O38      O        0.96400    0.25400    0.63400    1.000
    O39      O        0.93300    0.34200    0.73900    1.000
    O40      O        0.12700    0.38000    0.91600    1.000
    O41      O        0.27800    0.30500    0.87700    1.000
    O42      O        0.10000    0.49270    0.77760    1.000
    C25      C        0.04200    0.62800    0.92000    1.000
    C26      C        0.08400    0.71800    0.95800    1.000
    C27      C        0.22900    0.72400    0.99200    1.000
    C28      C        0.25900    0.82200    0.01500    1.000
    C29      C        0.39600    0.84400    0.05000    1.000
    C30      C        0.27800    0.67000    0.07700    1.000
    C31      C        0.36400    0.51900    0.83800    1.000
    C32      C        0.30700    0.45100    0.76500    1.000
    C33      C        0.17800    0.41900    0.77300    1.000
    C34      C        0.12100    0.36400    0.68800    1.000
    C35      C        0.00000    0.31600    0.68800    1.000
    C36      C        0.19700    0.36400    0.86200    1.000
    Bi7      Bi       0.02917    0.15040    0.53254    1.000
    Bi8      Bi       0.54259    0.96475    0.65542    1.000
    K4       K        0.28100    0.30930    0.22540    1.000
    O43      O        0.52600    0.12400    0.65900    1.000
    O44      O        0.42100    0.06200    0.52900    1.000
    O45      O        0.02000    0.28700    0.44700    1.000
    O46      O        0.07300    0.42000    0.42100    1.000
    O47      O        0.12700    0.11600    0.41700    1.000
    O48      O        0.26400    0.17900    0.35200    1.000
    O49      O        0.21800    0.19700    0.57900    1.000
    O50      O        0.11800    0.00200    0.57900    1.000
    O51      O        0.10400    0.09300    0.68800    1.000
    O52      O        0.53600    0.75400    0.86600    1.000
    O53      O        0.56700    0.84200    0.76100    1.000
    O54      O        0.37300    0.88000    0.58400    1.000
    O55      O        0.22200    0.80500    0.62300    1.000
    O56      O        0.40000    0.99270    0.72240    1.000
    C37      C        0.45800    0.12800    0.58000    1.000
    C38      C        0.41600    0.21800    0.54200    1.000
    C39      C        0.27100    0.22400    0.50800    1.000
    C40      C        0.24100    0.32200    0.48500    1.000
    C41      C        0.10400    0.34400    0.45000    1.000
    C42      C        0.22200    0.17000    0.42300    1.000
    C43      C        0.13600    0.01900    0.66200    1.000
    C44      C        0.19300    0.95100    0.73500    1.000
    C45      C        0.32200    0.91900    0.72700    1.000
    C46      C        0.37900    0.86400    0.81200    1.000
    C47      C        0.50000    0.81600    0.81200    1.000
    C48      C        0.30300    0.86400    0.63800    1.000
