# CIF file generated by openbabel 3.1.0, see https://openbabel.org
data_I
_chemical_name_common 'image0'
_cell_length_a 22.2807
_cell_length_b 22.2807
_cell_length_c 12.6044
_cell_angle_alpha 90
_cell_angle_beta 90
_cell_angle_gamma 120
_space_group_name_H-M_alt 'P 1'
_space_group_name_Hall 'P 1'
loop_
    _symmetry_equiv_pos_as_xyz
    x,y,z
loop_
    _atom_site_label
    _atom_site_type_symbol
    _atom_site_fract_x
    _atom_site_fract_y
    _atom_site_fract_z
    _atom_site_occupancy
    Cu1      Cu       0.20851    0.36943    0.83003    1.000
    N1       N        0.15230    0.29670    0.52160    1.000
    N2       N        0.19480    0.33150    0.68300    1.000
    N3       N        0.17140    0.37010    0.15040    1.000
    N4       N        0.21060    0.38580    0.98520    1.000
    N5       N        0.03840    0.39850    0.81240    1.000
    N6       N        0.11530    0.36410    0.82200    1.000
    N7       N        0.01940    0.58760    0.76530    1.000
    N8       N        0.08330    0.69200    0.82830    1.000
    C1       C        0.11350    0.28920    0.42420    1.000
    H1       H        0.08150    0.30600    0.43580    1.000
    H2       H        0.08690    0.24060    0.40470    1.000
    C2       C        0.16340    0.33020    0.33460    1.000
    H3       H        0.19680    0.37610    0.36000    1.000
    H4       H        0.18850    0.30710    0.31280    1.000
    C3       C        0.12520    0.33650    0.24110    1.000
    H5       H        0.08880    0.29080    0.22030    1.000
    H6       H        0.10370    0.36340    0.26150    1.000
    C4       C        0.15760    0.33740    0.60480    1.000
    H7       H        0.13810    0.36570    0.60720    1.000
    C5       C        0.20970    0.28210    0.64700    1.000
    H8       H        0.23290    0.26450    0.68580    1.000
    C6       C        0.18560    0.26280    0.54600    1.000
    H9       H        0.19120    0.23210    0.50290    1.000
    C7       C        0.16090    0.34350    0.04970    1.000
    H10      H        0.12340    0.30120    0.02950    1.000
    C8       C        0.25510    0.44140    0.04300    1.000
    H11      H        0.29500    0.47980    0.01760    1.000
    C9       C        0.23120    0.43170    0.14720    1.000
    H12      H        0.25230    0.46190    0.20370    1.000
    C10      C        0.00810    0.44400    0.80570    1.000
    H13      H        0.02360    0.47580    0.86540    1.000
    H14      H        0.95790    0.41630    0.80880    1.000
    C11      C        0.02920    0.48370    0.70510    1.000
    H15      H        0.01600    0.45180    0.64590    1.000
    H16      H        0.07920    0.51310    0.70400    1.000
    C12      C        0.99530    0.52870    0.69270    1.000
    H17      H        0.00300    0.54620    0.62060    1.000
    H18      H        0.94570    0.49920    0.70220    1.000
    C13      C        0.10330    0.41550    0.82990    1.000
    H19      H        0.13770    0.46040    0.84660    1.000
    C14      C        0.05250    0.30830    0.80300    1.000
    H20      H        0.04250    0.26260    0.79690    1.000
    C15      C        0.00620    0.33150    0.79440    1.000
    H21      H        0.95940    0.30410    0.77840    1.000
    C16      C        0.07470    0.65010    0.74800    1.000
    H22      H        0.10300    0.66240    0.68830    1.000
    C17      C        0.02950    0.65370    0.89570    1.000
    H23      H        0.02140    0.66970    0.95920    1.000
    C18      C        0.99060    0.59010    0.85690    1.000
    H24      H        0.95090    0.55420    0.88770    1.000
    Cu2      Cu       0.63057    0.83908    0.83003    1.000
    N9       N        0.70330    0.85560    0.52160    1.000
    N10      N        0.66850    0.86330    0.68300    1.000
    N11      N        0.62990    0.80130    0.15040    1.000
    N12      N        0.61420    0.82480    0.98520    1.000
    N13      N        0.60150    0.63990    0.81240    1.000
    N14      N        0.63590    0.75120    0.82200    1.000
    N15      N        0.41240    0.43180    0.76530    1.000
    N16      N        0.30800    0.39130    0.82830    1.000
    C19      C        0.71080    0.82430    0.42420    1.000
    H25      H        0.69400    0.77550    0.43580    1.000
    H26      H        0.75940    0.84630    0.40470    1.000
    C20      C        0.66980    0.83320    0.33460    1.000
    H27      H        0.62390    0.82070    0.36000    1.000
    H28      H        0.69290    0.88140    0.31280    1.000
    C21      C        0.66350    0.78870    0.24110    1.000
    H29      H        0.70920    0.79800    0.22030    1.000
    H30      H        0.63660    0.74030    0.26150    1.000
    C22      C        0.66260    0.82020    0.60480    1.000
    H31      H        0.63430    0.77240    0.60720    1.000
    C23      C        0.71790    0.92760    0.64700    1.000
    H32      H        0.73550    0.96840    0.68580    1.000
    C24      C        0.73720    0.92280    0.54600    1.000
    H33      H        0.76790    0.95910    0.50290    1.000
    C25      C        0.65650    0.81740    0.04970    1.000
    H34      H        0.69880    0.82220    0.02950    1.000
    C26      C        0.55860    0.81370    0.04300    1.000
    H35      H        0.52020    0.81520    0.01760    1.000
    C27      C        0.56830    0.79950    0.14720    1.000
    H36      H        0.53810    0.79040    0.20370    1.000
    C28      C        0.55600    0.56410    0.80570    1.000
    H37      H        0.52420    0.54780    0.86540    1.000
    H38      H        0.58370    0.54160    0.80880    1.000
    C29      C        0.51630    0.54550    0.70510    1.000
    H39      H        0.54820    0.56420    0.64590    1.000
    H40      H        0.48690    0.56610    0.70400    1.000
    C30      C        0.47130    0.46660    0.69270    1.000
    H41      H        0.45380    0.45680    0.62060    1.000
    H42      H        0.50080    0.44650    0.70220    1.000
    C31      C        0.58450    0.68780    0.82990    1.000
    H43      H        0.53960    0.67730    0.84660    1.000
    C32      C        0.69170    0.74420    0.80300    1.000
    H44      H        0.73740    0.77990    0.79690    1.000
    C33      C        0.66850    0.67470    0.79440    1.000
    H45      H        0.69590    0.65530    0.77840    1.000
    C34      C        0.34990    0.42460    0.74800    1.000
    H46      H        0.33760    0.44060    0.68830    1.000
    C35      C        0.34630    0.37580    0.89570    1.000
    H47      H        0.33030    0.35170    0.95920    1.000
    C36      C        0.40990    0.40050    0.85690    1.000
    H48      H        0.44580    0.39670    0.88770    1.000
    Cu3      Cu       0.16092    0.79149    0.83003    1.000
    N17      N        0.14440    0.84770    0.52160    1.000
    N18      N        0.13670    0.80520    0.68300    1.000
    N19      N        0.19870    0.82860    0.15040    1.000
    N20      N        0.17520    0.78940    0.98520    1.000
    N21      N        0.36010    0.96160    0.81240    1.000
    N22      N        0.24880    0.88470    0.82200    1.000
    N23      N        0.56820    0.98060    0.76530    1.000
    N24      N        0.60870    0.91670    0.82830    1.000
    C37      C        0.17570    0.88650    0.42420    1.000
    H49      H        0.22450    0.91850    0.43580    1.000
    H50      H        0.15370    0.91310    0.40470    1.000
    C38      C        0.16680    0.83660    0.33460    1.000
    H51      H        0.17930    0.80320    0.36000    1.000
    H52      H        0.11860    0.81150    0.31280    1.000
    C39      C        0.21130    0.87480    0.24110    1.000
    H53      H        0.20200    0.91120    0.22030    1.000
    H54      H        0.25970    0.89630    0.26150    1.000
    C40      C        0.17980    0.84240    0.60480    1.000
    H55      H        0.22760    0.86190    0.60720    1.000
    C41      C        0.07240    0.79030    0.64700    1.000
    H56      H        0.03160    0.76710    0.68580    1.000
    C42      C        0.07720    0.81440    0.54600    1.000
    H57      H        0.04090    0.80880    0.50290    1.000
    C43      C        0.18260    0.83910    0.04970    1.000
    H58      H        0.17780    0.87660    0.02950    1.000
    C44      C        0.18630    0.74490    0.04300    1.000
    H59      H        0.18480    0.70500    0.01760    1.000
    C45      C        0.20050    0.76880    0.14720    1.000
    H60      H        0.20960    0.74770    0.20370    1.000
    C46      C        0.43590    0.99190    0.80570    1.000
    H61      H        0.45220    0.97640    0.86540    1.000
    H62      H        0.45840    0.04210    0.80880    1.000
    C47      C        0.45450    0.97080    0.70510    1.000
    H63      H        0.43580    0.98400    0.64590    1.000
    H64      H        0.43390    0.92080    0.70400    1.000
    C48      C        0.53340    0.00470    0.69270    1.000
    H65      H        0.54320    0.99700    0.62060    1.000
    H66      H        0.55350    0.05430    0.70220    1.000
    C49      C        0.31220    0.89670    0.82990    1.000
    H67      H        0.32270    0.86230    0.84660    1.000
    C50      C        0.25580    0.94750    0.80300    1.000
    H68      H        0.22010    0.95750    0.79690    1.000
    C51      C        0.32530    0.99380    0.79440    1.000
    H69      H        0.34470    0.04060    0.77840    1.000
    C52      C        0.57540    0.92530    0.74800    1.000
    H70      H        0.55940    0.89700    0.68830    1.000
    C53      C        0.62420    0.97050    0.89570    1.000
    H71      H        0.64830    0.97860    0.95920    1.000
    C54      C        0.59950    0.00940    0.85690    1.000
    H72      H        0.60330    0.04910    0.88770    1.000
    Cu4      Cu       0.79149    0.63057    0.16997    1.000
    N25      N        0.84770    0.70330    0.47840    1.000
    N26      N        0.80520    0.66850    0.31700    1.000
    N27      N        0.82860    0.62990    0.84960    1.000
    N28      N        0.78940    0.61420    0.01480    1.000
    N29      N        0.96160    0.60150    0.18760    1.000
    N30      N        0.88470    0.63590    0.17800    1.000
    N31      N        0.98060    0.41240    0.23470    1.000
    N32      N        0.91670    0.30800    0.17170    1.000
    C55      C        0.88650    0.71080    0.57580    1.000
    H73      H        0.91850    0.69400    0.56420    1.000
    H74      H        0.91310    0.75940    0.59530    1.000
    C56      C        0.83660    0.66980    0.66540    1.000
    H75      H        0.80320    0.62390    0.64000    1.000
    H76      H        0.81150    0.69290    0.68720    1.000
    C57      C        0.87480    0.66350    0.75890    1.000
    H77      H        0.91120    0.70920    0.77970    1.000
    H78      H        0.89630    0.63660    0.73850    1.000
    C58      C        0.84240    0.66260    0.39520    1.000
    H79      H        0.86190    0.63430    0.39280    1.000
    C59      C        0.79030    0.71790    0.35300    1.000
    H80      H        0.76710    0.73550    0.31420    1.000
    C60      C        0.81440    0.73720    0.45400    1.000
    H81      H        0.80880    0.76790    0.49710    1.000
    C61      C        0.83910    0.65650    0.95030    1.000
    H82      H        0.87660    0.69880    0.97050    1.000
    C62      C        0.74490    0.55860    0.95700    1.000
    H83      H        0.70500    0.52020    0.98240    1.000
    C63      C        0.76880    0.56830    0.85280    1.000
    H84      H        0.74770    0.53810    0.79630    1.000
    C64      C        0.99190    0.55600    0.19430    1.000
    H85      H        0.97640    0.52420    0.13460    1.000
    H86      H        0.04210    0.58370    0.19120    1.000
    C65      C        0.97080    0.51630    0.29490    1.000
    H87      H        0.98400    0.54820    0.35410    1.000
    H88      H        0.92080    0.48690    0.29600    1.000
    C66      C        0.00470    0.47130    0.30730    1.000
    H89      H        0.99700    0.45380    0.37940    1.000
    H90      H        0.05430    0.50080    0.29780    1.000
    C67      C        0.89670    0.58450    0.17010    1.000
    H91      H        0.86230    0.53960    0.15340    1.000
    C68      C        0.94750    0.69170    0.19700    1.000
    H92      H        0.95750    0.73740    0.20310    1.000
    C69      C        0.99380    0.66850    0.20560    1.000
    H93      H        0.04060    0.69590    0.22160    1.000
    C70      C        0.92530    0.34990    0.25200    1.000
    H94      H        0.89700    0.33760    0.31170    1.000
    C71      C        0.97050    0.34630    0.10430    1.000
    H95      H        0.97860    0.33030    0.04080    1.000
    C72      C        0.00940    0.40990    0.14310    1.000
    H96      H        0.04910    0.44580    0.11230    1.000
    Cu5      Cu       0.36943    0.16092    0.16997    1.000
    N33      N        0.29670    0.14440    0.47840    1.000
    N34      N        0.33150    0.13670    0.31700    1.000
    N35      N        0.37010    0.19870    0.84960    1.000
    N36      N        0.38580    0.17520    0.01480    1.000
    N37      N        0.39850    0.36010    0.18760    1.000
    N38      N        0.36410    0.24880    0.17800    1.000
    N39      N        0.58760    0.56820    0.23470    1.000
    N40      N        0.69200    0.60870    0.17170    1.000
    C73      C        0.28920    0.17570    0.57580    1.000
    H97      H        0.30600    0.22450    0.56420    1.000
    H98      H        0.24060    0.15370    0.59530    1.000
    C74      C        0.33020    0.16680    0.66540    1.000
    H99      H        0.37610    0.17930    0.64000    1.000
    H100     H        0.30710    0.11860    0.68720    1.000
    C75      C        0.33650    0.21130    0.75890    1.000
    H101     H        0.29080    0.20200    0.77970    1.000
    H102     H        0.36340    0.25970    0.73850    1.000
    C76      C        0.33740    0.17980    0.39520    1.000
    H103     H        0.36570    0.22760    0.39280    1.000
    C77      C        0.28210    0.07240    0.35300    1.000
    H104     H        0.26450    0.03160    0.31420    1.000
    C78      C        0.26280    0.07720    0.45400    1.000
    H105     H        0.23210    0.04090    0.49710    1.000
    C79      C        0.34350    0.18260    0.95030    1.000
    H106     H        0.30120    0.17780    0.97050    1.000
    C80      C        0.44140    0.18630    0.95700    1.000
    H107     H        0.47980    0.18480    0.98240    1.000
    C81      C        0.43170    0.20050    0.85280    1.000
    H108     H        0.46190    0.20960    0.79630    1.000
    C82      C        0.44400    0.43590    0.19430    1.000
    H109     H        0.47580    0.45220    0.13460    1.000
    H110     H        0.41630    0.45840    0.19120    1.000
    C83      C        0.48370    0.45450    0.29490    1.000
    H111     H        0.45180    0.43580    0.35410    1.000
    H112     H        0.51310    0.43390    0.29600    1.000
    C84      C        0.52870    0.53340    0.30730    1.000
    H113     H        0.54620    0.54320    0.37940    1.000
    H114     H        0.49920    0.55350    0.29780    1.000
    C85      C        0.41550    0.31220    0.17010    1.000
    H115     H        0.46040    0.32270    0.15340    1.000
    C86      C        0.30830    0.25580    0.19700    1.000
    H116     H        0.26260    0.22010    0.20310    1.000
    C87      C        0.33150    0.32530    0.20560    1.000
    H117     H        0.30410    0.34470    0.22160    1.000
    C88      C        0.65010    0.57540    0.25200    1.000
    H118     H        0.66240    0.55940    0.31170    1.000
    C89      C        0.65370    0.62420    0.10430    1.000
    H119     H        0.66970    0.64830    0.04080    1.000
    C90      C        0.59010    0.59950    0.14310    1.000
    H120     H        0.55420    0.60330    0.11230    1.000
    Cu6      Cu       0.83908    0.20851    0.16997    1.000
    N41      N        0.85560    0.15230    0.47840    1.000
    N42      N        0.86330    0.19480    0.31700    1.000
    N43      N        0.80130    0.17140    0.84960    1.000
    N44      N        0.82480    0.21060    0.01480    1.000
    N45      N        0.63990    0.03840    0.18760    1.000
    N46      N        0.75120    0.11530    0.17800    1.000
    N47      N        0.43180    0.01940    0.23470    1.000
    N48      N        0.39130    0.08330    0.17170    1.000
    C91      C        0.82430    0.11350    0.57580    1.000
    H121     H        0.77550    0.08150    0.56420    1.000
    H122     H        0.84630    0.08690    0.59530    1.000
    C92      C        0.83320    0.16340    0.66540    1.000
    H123     H        0.82070    0.19680    0.64000    1.000
    H124     H        0.88140    0.18850    0.68720    1.000
    C93      C        0.78870    0.12520    0.75890    1.000
    H125     H        0.79800    0.08880    0.77970    1.000
    H126     H        0.74030    0.10370    0.73850    1.000
    C94      C        0.82020    0.15760    0.39520    1.000
    H127     H        0.77240    0.13810    0.39280    1.000
    C95      C        0.92760    0.20970    0.35300    1.000
    H128     H        0.96840    0.23290    0.31420    1.000
    C96      C        0.92280    0.18560    0.45400    1.000
    H129     H        0.95910    0.19120    0.49710    1.000
    C97      C        0.81740    0.16090    0.95030    1.000
    H130     H        0.82220    0.12340    0.97050    1.000
    C98      C        0.81370    0.25510    0.95700    1.000
    H131     H        0.81520    0.29500    0.98240    1.000
    C99      C        0.79950    0.23120    0.85280    1.000
    H132     H        0.79040    0.25230    0.79630    1.000
    C100     C        0.56410    0.00810    0.19430    1.000
    H133     H        0.54780    0.02360    0.13460    1.000
    H134     H        0.54160    0.95790    0.19120    1.000
    C101     C        0.54550    0.02920    0.29490    1.000
    H135     H        0.56420    0.01600    0.35410    1.000
    H136     H        0.56610    0.07920    0.29600    1.000
    C102     C        0.46660    0.99530    0.30730    1.000
    H137     H        0.45680    0.00300    0.37940    1.000
    H138     H        0.44650    0.94570    0.29780    1.000
    C103     C        0.68780    0.10330    0.17010    1.000
    H139     H        0.67730    0.13770    0.15340    1.000
    C104     C        0.74420    0.05250    0.19700    1.000
    H140     H        0.77990    0.04250    0.20310    1.000
    C105     C        0.67470    0.00620    0.20560    1.000
    H141     H        0.65530    0.95940    0.22160    1.000
    C106     C        0.42460    0.07470    0.25200    1.000
    H142     H        0.44060    0.10300    0.31170    1.000
    C107     C        0.37580    0.02950    0.10430    1.000
    H143     H        0.35170    0.02140    0.04080    1.000
    C108     C        0.40050    0.99060    0.14310    1.000
    H144     H        0.39670    0.95090    0.11230    1.000
    Mo1      Mo       0.13950    0.16130    0.91480    1.000
    Mo2      Mo       0.97398    0.10071    0.80720    1.000
    O1       O        0.06800    0.13330    0.80130    1.000
    O2       O        0.14080    0.17720    0.06430    1.000
    O3       O        0.20980    0.23710    0.88200    1.000
    O4       O        0.88710    0.02430    0.80320    1.000
    O5       O        0.04700    0.04900    0.90500    1.000
    Mo3      Mo       0.11650    0.17170    0.92930    1.000
    Mo4      Mo       0.98150    0.05150    0.74210    1.000
    O6       O        0.16600    0.14000    0.01800    1.000
    O7       O        0.16000    0.25260    0.87800    1.000
    O8       O        0.97000    0.07100    0.61600    1.000
    O9       O        0.01500    0.07280    0.97000    1.000
    Mo5      Mo       0.83870    0.97820    0.91480    1.000
    Mo6      Mo       0.89929    0.87327    0.80720    1.000
    O10      O        0.86670    0.93470    0.80130    1.000
    O11      O        0.82280    0.96360    0.06430    1.000
    O12      O        0.76290    0.97270    0.88200    1.000
    O13      O        0.97570    0.86280    0.80320    1.000
    O14      O        0.95100    0.99800    0.90500    1.000
    Mo7      Mo       0.82830    0.94480    0.92930    1.000
    Mo8      Mo       0.94850    0.93000    0.74210    1.000
    O15      O        0.86000    0.02600    0.01800    1.000
    O16      O        0.74740    0.90740    0.87800    1.000
    O17      O        0.92900    0.89900    0.61600    1.000
    O18      O        0.92720    0.94220    0.97000    1.000
    Mo9      Mo       0.02180    0.86050    0.91480    1.000
    Mo10     Mo       0.12673    0.02602    0.80720    1.000
    O19      O        0.06530    0.93200    0.80130    1.000
    O20      O        0.03640    0.85920    0.06430    1.000
    O21      O        0.02730    0.79020    0.88200    1.000
    O22      O        0.13720    0.11290    0.80320    1.000
    O23      O        0.00200    0.95300    0.90500    1.000
    Mo11     Mo       0.05520    0.88350    0.92930    1.000
    Mo12     Mo       0.07000    0.01850    0.74210    1.000
    O24      O        0.97400    0.83400    0.01800    1.000
    O25      O        0.09260    0.84000    0.87800    1.000
    O26      O        0.10100    0.03000    0.61600    1.000
    O27      O        0.05780    0.98500    0.97000    1.000
    Mo13     Mo       0.86050    0.83870    0.08520    1.000
    Mo14     Mo       0.02602    0.89929    0.19280    1.000
    O28      O        0.93200    0.86670    0.19870    1.000
    O29      O        0.85920    0.82280    0.93570    1.000
    O30      O        0.79020    0.76290    0.11800    1.000
    O31      O        0.11290    0.97570    0.19680    1.000
    O32      O        0.95300    0.95100    0.09500    1.000
    Mo15     Mo       0.88350    0.82830    0.07070    1.000
    Mo16     Mo       0.01850    0.94850    0.25790    1.000
    O33      O        0.83400    0.86000    0.98200    1.000
    O34      O        0.84000    0.74740    0.12200    1.000
    O35      O        0.03000    0.92900    0.38400    1.000
    O36      O        0.98500    0.92720    0.03000    1.000
    Mo17     Mo       0.16130    0.02180    0.08520    1.000
    Mo18     Mo       0.10071    0.12673    0.19280    1.000
    O37      O        0.13330    0.06530    0.19870    1.000
    O38      O        0.17720    0.03640    0.93570    1.000
    O39      O        0.23710    0.02730    0.11800    1.000
    O40      O        0.02430    0.13720    0.19680    1.000
    O41      O        0.04900    0.00200    0.09500    1.000
    Mo19     Mo       0.17170    0.05520    0.07070    1.000
    Mo20     Mo       0.05150    0.07000    0.25790    1.000
    O42      O        0.14000    0.97400    0.98200    1.000
    O43      O        0.25260    0.09260    0.12200    1.000
    O44      O        0.07100    0.10100    0.38400    1.000
    O45      O        0.07280    0.05780    0.03000    1.000
    Mo21     Mo       0.97820    0.13950    0.08520    1.000
    Mo22     Mo       0.87327    0.97398    0.19280    1.000
    O46      O        0.93470    0.06800    0.19870    1.000
    O47      O        0.96360    0.14080    0.93570    1.000
    O48      O        0.97270    0.20980    0.11800    1.000
    O49      O        0.86280    0.88710    0.19680    1.000
    O50      O        0.99800    0.04700    0.09500    1.000
    Mo23     Mo       0.94480    0.11650    0.07070    1.000
    Mo24     Mo       0.93000    0.98150    0.25790    1.000
    O51      O        0.02600    0.16600    0.98200    1.000
    O52      O        0.90740    0.16000    0.12200    1.000
    O53      O        0.89900    0.97000    0.38400    1.000
    O54      O        0.94220    0.01500    0.03000    1.000
    P1       P        0.00000    0.00000    0.00000    1.000
