# CIF file generated by openbabel 3.1.0, see https://openbabel.org
data_I
_chemical_name_common 'image0'
_cell_length_a 11.5293
_cell_length_b 40.471
_cell_length_c 17.1304
_cell_angle_alpha 90
_cell_angle_beta 90
_cell_angle_gamma 90
_space_group_name_H-M_alt 'P 1'
_space_group_name_Hall 'P 1'
loop_
    _symmetry_equiv_pos_as_xyz
    x,y,z
loop_
    _atom_site_label
    _atom_site_type_symbol
    _atom_site_fract_x
    _atom_site_fract_y
    _atom_site_fract_z
    _atom_site_occupancy
    Dy1      Dy       0.22966    0.51460    0.74892    1.000
    O1       O        0.79360    0.34613    0.78610    1.000
    H1       H        0.75430    0.33310    0.81360    1.000
    C1       C        0.05950    0.41200    0.74770    1.000
    O2       O        0.71370    0.44906    0.65070    1.000
    O3       O        0.96600    0.31529    0.56590    1.000
    C2       C        0.29860    0.35120    0.69750    1.000
    C3       C        0.96720    0.38970    0.75950    1.000
    H2       H        0.89250    0.39800    0.77250    1.000
    O4       O        0.90220    0.30260    0.75960    1.000
    C4       C        0.98400    0.35640    0.75230    1.000
    N1       N        0.38990    0.36890    0.67380    1.000
    O5       O        0.13290    0.46599    0.76790    1.000
    C5       C        0.66530    0.32820    0.61010    1.000
    H3       H        0.63900    0.30600    0.60870    1.000
    C6       C        0.85950    0.30970    0.56110    1.000
    O6       O        0.86810    0.43823    0.57880    1.000
    O7       O        0.94140    0.45916    0.76160    1.000
    C7       C        0.47250    0.34560    0.66230    1.000
    C8       C        0.09210    0.34420    0.72980    1.000
    H4       H        0.10250    0.32110    0.72250    1.000
    N2       N        0.43540    0.31580    0.67790    1.000
    C9       C        0.77640    0.42930    0.61200    1.000
    C10      C        0.62770    0.38590    0.63550    1.000
    H5       H        0.57690    0.40290    0.65240    1.000
    C11      C        0.18490    0.36570    0.71780    1.000
    C12      C        0.16830    0.39910    0.72590    1.000
    H6       H        0.23110    0.41380    0.71660    1.000
    C13      C        0.73870    0.39380    0.61060    1.000
    C14      C        0.89020    0.33230    0.76720    1.000
    C15      C        0.81370    0.36890    0.58730    1.000
    H7       H        0.89040    0.37410    0.57130    1.000
    N3       N        0.32140    0.31960    0.70100    1.000
    H8       H        0.27340    0.30390    0.71530    1.000
    C16      C        0.77650    0.33600    0.58720    1.000
    C17      C        0.04290    0.44850    0.75960    1.000
    O8       O        0.82070    0.28279    0.53680    1.000
    C18      C        0.59080    0.35380    0.63580    1.000
    Dy2      Dy       0.22966    0.01460    0.24892    1.000
    O9       O        0.79360    0.84613    0.28610    1.000
    H9       H        0.75430    0.83310    0.31360    1.000
    C19      C        0.05950    0.91200    0.24770    1.000
    O10      O        0.71370    0.94906    0.15070    1.000
    O11      O        0.96600    0.81529    0.06590    1.000
    C20      C        0.29860    0.85120    0.19750    1.000
    C21      C        0.96720    0.88970    0.25950    1.000
    H10      H        0.89250    0.89800    0.27250    1.000
    O12      O        0.90220    0.80260    0.25960    1.000
    C22      C        0.98400    0.85640    0.25230    1.000
    N4       N        0.38990    0.86890    0.17380    1.000
    O13      O        0.13290    0.96599    0.26790    1.000
    C23      C        0.66530    0.82820    0.11010    1.000
    H11      H        0.63900    0.80600    0.10870    1.000
    C24      C        0.85950    0.80970    0.06110    1.000
    O14      O        0.86810    0.93823    0.07880    1.000
    O15      O        0.94140    0.95916    0.26160    1.000
    C25      C        0.47250    0.84560    0.16230    1.000
    C26      C        0.09210    0.84420    0.22980    1.000
    H12      H        0.10250    0.82110    0.22250    1.000
    N5       N        0.43540    0.81580    0.17790    1.000
    C27      C        0.77640    0.92930    0.11200    1.000
    C28      C        0.62770    0.88590    0.13550    1.000
    H13      H        0.57690    0.90290    0.15240    1.000
    C29      C        0.18490    0.86570    0.21780    1.000
    C30      C        0.16830    0.89910    0.22590    1.000
    H14      H        0.23110    0.91380    0.21660    1.000
    C31      C        0.73870    0.89380    0.11060    1.000
    C32      C        0.89020    0.83230    0.26720    1.000
    C33      C        0.81370    0.86890    0.08730    1.000
    H15      H        0.89040    0.87410    0.07130    1.000
    N6       N        0.32140    0.81960    0.20100    1.000
    H16      H        0.27340    0.80390    0.21530    1.000
    C34      C        0.77650    0.83600    0.08720    1.000
    C35      C        0.04290    0.94850    0.25960    1.000
    O16      O        0.82070    0.78279    0.03680    1.000
    C36      C        0.59080    0.85380    0.13580    1.000
    Dy3      Dy       0.72966    0.51460    0.24892    1.000
    O17      O        0.29360    0.34613    0.28610    1.000
    H17      H        0.25430    0.33310    0.31360    1.000
    C37      C        0.55950    0.41200    0.24770    1.000
    O18      O        0.21370    0.44906    0.15070    1.000
    O19      O        0.46600    0.31529    0.06590    1.000
    C38      C        0.79860    0.35120    0.19750    1.000
    C39      C        0.46720    0.38970    0.25950    1.000
    H18      H        0.39250    0.39800    0.27250    1.000
    O20      O        0.40220    0.30260    0.25960    1.000
    C40      C        0.48400    0.35640    0.25230    1.000
    N7       N        0.88990    0.36890    0.17380    1.000
    O21      O        0.63290    0.46599    0.26790    1.000
    C41      C        0.16530    0.32820    0.11010    1.000
    H19      H        0.13900    0.30600    0.10870    1.000
    C42      C        0.35950    0.30970    0.06110    1.000
    O22      O        0.36810    0.43823    0.07880    1.000
    O23      O        0.44140    0.45916    0.26160    1.000
    C43      C        0.97250    0.34560    0.16230    1.000
    C44      C        0.59210    0.34420    0.22980    1.000
    H20      H        0.60250    0.32110    0.22250    1.000
    N8       N        0.93540    0.31580    0.17790    1.000
    C45      C        0.27640    0.42930    0.11200    1.000
    C46      C        0.12770    0.38590    0.13550    1.000
    H21      H        0.07690    0.40290    0.15240    1.000
    C47      C        0.68490    0.36570    0.21780    1.000
    C48      C        0.66830    0.39910    0.22590    1.000
    H22      H        0.73110    0.41380    0.21660    1.000
    C49      C        0.23870    0.39380    0.11060    1.000
    C50      C        0.39020    0.33230    0.26720    1.000
    C51      C        0.31370    0.36890    0.08730    1.000
    H23      H        0.39040    0.37410    0.07130    1.000
    N9       N        0.82140    0.31960    0.20100    1.000
    H24      H        0.77340    0.30390    0.21530    1.000
    C52      C        0.27650    0.33600    0.08720    1.000
    C53      C        0.54290    0.44850    0.25960    1.000
    O24      O        0.32070    0.28279    0.03680    1.000
    C54      C        0.09080    0.35380    0.13580    1.000
    Dy4      Dy       0.72966    0.01460    0.74892    1.000
    O25      O        0.29360    0.84613    0.78610    1.000
    H25      H        0.25430    0.83310    0.81360    1.000
    C55      C        0.55950    0.91200    0.74770    1.000
    O26      O        0.21370    0.94906    0.65070    1.000
    O27      O        0.46600    0.81529    0.56590    1.000
    C56      C        0.79860    0.85120    0.69750    1.000
    C57      C        0.46720    0.88970    0.75950    1.000
    H26      H        0.39250    0.89800    0.77250    1.000
    O28      O        0.40220    0.80260    0.75960    1.000
    C58      C        0.48400    0.85640    0.75230    1.000
    N10      N        0.88990    0.86890    0.67380    1.000
    O29      O        0.63290    0.96599    0.76790    1.000
    C59      C        0.16530    0.82820    0.61010    1.000
    H27      H        0.13900    0.80600    0.60870    1.000
    C60      C        0.35950    0.80970    0.56110    1.000
    O30      O        0.36810    0.93823    0.57880    1.000
    O31      O        0.44140    0.95916    0.76160    1.000
    C61      C        0.97250    0.84560    0.66230    1.000
    C62      C        0.59210    0.84420    0.72980    1.000
    H28      H        0.60250    0.82110    0.72250    1.000
    N11      N        0.93540    0.81580    0.67790    1.000
    C63      C        0.27640    0.92930    0.61200    1.000
    C64      C        0.12770    0.88590    0.63550    1.000
    H29      H        0.07690    0.90290    0.65240    1.000
    C65      C        0.68490    0.86570    0.71780    1.000
    C66      C        0.66830    0.89910    0.72590    1.000
    H30      H        0.73110    0.91380    0.71660    1.000
    C67      C        0.23870    0.89380    0.61060    1.000
    C68      C        0.39020    0.83230    0.76720    1.000
    C69      C        0.31370    0.86890    0.58730    1.000
    H31      H        0.39040    0.87410    0.57130    1.000
    N12      N        0.82140    0.81960    0.70100    1.000
    H32      H        0.77340    0.80390    0.71530    1.000
    C70      C        0.27650    0.83600    0.58720    1.000
    C71      C        0.54290    0.94850    0.75960    1.000
    O32      O        0.32070    0.78279    0.53680    1.000
    C72      C        0.09080    0.85380    0.63580    1.000
    Dy5      Dy       0.77034    0.48540    0.74892    1.000
    O33      O        0.20640    0.65387    0.78610    1.000
    H33      H        0.24570    0.66690    0.81360    1.000
    C73      C        0.94050    0.58800    0.74770    1.000
    O34      O        0.28630    0.55094    0.65070    1.000
    O35      O        0.03400    0.68471    0.56590    1.000
    C74      C        0.70140    0.64880    0.69750    1.000
    C75      C        0.03280    0.61030    0.75950    1.000
    H34      H        0.10750    0.60200    0.77250    1.000
    O36      O        0.09780    0.69740    0.75960    1.000
    C76      C        0.01600    0.64360    0.75230    1.000
    N13      N        0.61010    0.63110    0.67380    1.000
    O37      O        0.86710    0.53401    0.76790    1.000
    C77      C        0.33470    0.67180    0.61010    1.000
    H35      H        0.36100    0.69400    0.60870    1.000
    C78      C        0.14050    0.69030    0.56110    1.000
    O38      O        0.13190    0.56177    0.57880    1.000
    O39      O        0.05860    0.54084    0.76160    1.000
    C79      C        0.52750    0.65440    0.66230    1.000
    C80      C        0.90790    0.65580    0.72980    1.000
    H36      H        0.89750    0.67890    0.72250    1.000
    N14      N        0.56460    0.68420    0.67790    1.000
    C81      C        0.22360    0.57070    0.61200    1.000
    C82      C        0.37230    0.61410    0.63550    1.000
    H37      H        0.42310    0.59710    0.65240    1.000
    C83      C        0.81510    0.63430    0.71780    1.000
    C84      C        0.83170    0.60090    0.72590    1.000
    H38      H        0.76890    0.58620    0.71660    1.000
    C85      C        0.26130    0.60620    0.61060    1.000
    C86      C        0.10980    0.66770    0.76720    1.000
    C87      C        0.18630    0.63110    0.58730    1.000
    H39      H        0.10960    0.62590    0.57130    1.000
    N15      N        0.67860    0.68040    0.70100    1.000
    H40      H        0.72660    0.69610    0.71530    1.000
    C88      C        0.22350    0.66400    0.58720    1.000
    C89      C        0.95710    0.55150    0.75960    1.000
    O40      O        0.17930    0.71721    0.53680    1.000
    C90      C        0.40920    0.64620    0.63580    1.000
    Dy6      Dy       0.77034    0.98540    0.24892    1.000
    O41      O        0.20640    0.15387    0.28610    1.000
    H41      H        0.24570    0.16690    0.31360    1.000
    C91      C        0.94050    0.08800    0.24770    1.000
    O42      O        0.28630    0.05094    0.15070    1.000
    O43      O        0.03400    0.18471    0.06590    1.000
    C92      C        0.70140    0.14880    0.19750    1.000
    C93      C        0.03280    0.11030    0.25950    1.000
    H42      H        0.10750    0.10200    0.27250    1.000
    O44      O        0.09780    0.19740    0.25960    1.000
    C94      C        0.01600    0.14360    0.25230    1.000
    N16      N        0.61010    0.13110    0.17380    1.000
    O45      O        0.86710    0.03401    0.26790    1.000
    C95      C        0.33470    0.17180    0.11010    1.000
    H43      H        0.36100    0.19400    0.10870    1.000
    C96      C        0.14050    0.19030    0.06110    1.000
    O46      O        0.13190    0.06177    0.07880    1.000
    O47      O        0.05860    0.04084    0.26160    1.000
    C97      C        0.52750    0.15440    0.16230    1.000
    C98      C        0.90790    0.15580    0.22980    1.000
    H44      H        0.89750    0.17890    0.22250    1.000
    N17      N        0.56460    0.18420    0.17790    1.000
    C99      C        0.22360    0.07070    0.11200    1.000
    C100     C        0.37230    0.11410    0.13550    1.000
    H45      H        0.42310    0.09710    0.15240    1.000
    C101     C        0.81510    0.13430    0.21780    1.000
    C102     C        0.83170    0.10090    0.22590    1.000
    H46      H        0.76890    0.08620    0.21660    1.000
    C103     C        0.26130    0.10620    0.11060    1.000
    C104     C        0.10980    0.16770    0.26720    1.000
    C105     C        0.18630    0.13110    0.08730    1.000
    H47      H        0.10960    0.12590    0.07130    1.000
    N18      N        0.67860    0.18040    0.20100    1.000
    H48      H        0.72660    0.19610    0.21530    1.000
    C106     C        0.22350    0.16400    0.08720    1.000
    C107     C        0.95710    0.05150    0.25960    1.000
    O48      O        0.17930    0.21721    0.03680    1.000
    C108     C        0.40920    0.14620    0.13580    1.000
    Dy7      Dy       0.27034    0.48540    0.24892    1.000
    O49      O        0.70640    0.65387    0.28610    1.000
    H49      H        0.74570    0.66690    0.31360    1.000
    C109     C        0.44050    0.58800    0.24770    1.000
    O50      O        0.78630    0.55094    0.15070    1.000
    O51      O        0.53400    0.68471    0.06590    1.000
    C110     C        0.20140    0.64880    0.19750    1.000
    C111     C        0.53280    0.61030    0.25950    1.000
    H50      H        0.60750    0.60200    0.27250    1.000
    O52      O        0.59780    0.69740    0.25960    1.000
    C112     C        0.51600    0.64360    0.25230    1.000
    N19      N        0.11010    0.63110    0.17380    1.000
    O53      O        0.36710    0.53401    0.26790    1.000
    C113     C        0.83470    0.67180    0.11010    1.000
    H51      H        0.86100    0.69400    0.10870    1.000
    C114     C        0.64050    0.69030    0.06110    1.000
    O54      O        0.63190    0.56177    0.07880    1.000
    O55      O        0.55860    0.54084    0.26160    1.000
    C115     C        0.02750    0.65440    0.16230    1.000
    C116     C        0.40790    0.65580    0.22980    1.000
    H52      H        0.39750    0.67890    0.22250    1.000
    N20      N        0.06460    0.68420    0.17790    1.000
    C117     C        0.72360    0.57070    0.11200    1.000
    C118     C        0.87230    0.61410    0.13550    1.000
    H53      H        0.92310    0.59710    0.15240    1.000
    C119     C        0.31510    0.63430    0.21780    1.000
    C120     C        0.33170    0.60090    0.22590    1.000
    H54      H        0.26890    0.58620    0.21660    1.000
    C121     C        0.76130    0.60620    0.11060    1.000
    C122     C        0.60980    0.66770    0.26720    1.000
    C123     C        0.68630    0.63110    0.08730    1.000
    H55      H        0.60960    0.62590    0.07130    1.000
    N21      N        0.17860    0.68040    0.20100    1.000
    H56      H        0.22660    0.69610    0.21530    1.000
    C124     C        0.72350    0.66400    0.08720    1.000
    C125     C        0.45710    0.55150    0.25960    1.000
    O56      O        0.67930    0.71721    0.03680    1.000
    C126     C        0.90920    0.64620    0.13580    1.000
    Dy8      Dy       0.27034    0.98540    0.74892    1.000
    O57      O        0.70640    0.15387    0.78610    1.000
    H57      H        0.74570    0.16690    0.81360    1.000
    C127     C        0.44050    0.08800    0.74770    1.000
    O58      O        0.78630    0.05094    0.65070    1.000
    O59      O        0.53400    0.18471    0.56590    1.000
    C128     C        0.20140    0.14880    0.69750    1.000
    C129     C        0.53280    0.11030    0.75950    1.000
    H58      H        0.60750    0.10200    0.77250    1.000
    O60      O        0.59780    0.19740    0.75960    1.000
    C130     C        0.51600    0.14360    0.75230    1.000
    N22      N        0.11010    0.13110    0.67380    1.000
    O61      O        0.36710    0.03401    0.76790    1.000
    C131     C        0.83470    0.17180    0.61010    1.000
    H59      H        0.86100    0.19400    0.60870    1.000
    C132     C        0.64050    0.19030    0.56110    1.000
    O62      O        0.63190    0.06177    0.57880    1.000
    O63      O        0.55860    0.04084    0.76160    1.000
    C133     C        0.02750    0.15440    0.66230    1.000
    C134     C        0.40790    0.15580    0.72980    1.000
    H60      H        0.39750    0.17890    0.72250    1.000
    N23      N        0.06460    0.18420    0.67790    1.000
    C135     C        0.72360    0.07070    0.61200    1.000
    C136     C        0.87230    0.11410    0.63550    1.000
    H61      H        0.92310    0.09710    0.65240    1.000
    C137     C        0.31510    0.13430    0.71780    1.000
    C138     C        0.33170    0.10090    0.72590    1.000
    H62      H        0.26890    0.08620    0.71660    1.000
    C139     C        0.76130    0.10620    0.61060    1.000
    C140     C        0.60980    0.16770    0.76720    1.000
    C141     C        0.68630    0.13110    0.58730    1.000
    H63      H        0.60960    0.12590    0.57130    1.000
    N24      N        0.17860    0.18040    0.70100    1.000
    H64      H        0.22660    0.19610    0.71530    1.000
    C142     C        0.72350    0.16400    0.58720    1.000
    C143     C        0.45710    0.05150    0.75960    1.000
    O64      O        0.67930    0.21721    0.53680    1.000
    C144     C        0.90920    0.14620    0.63580    1.000
    Dy9      Dy       0.47966    0.73540    0.99892    1.000
    O65      O        0.04360    0.90387    0.03610    1.000
    H65      H        0.00430    0.91690    0.06360    1.000
    C145     C        0.30950    0.83800    0.99770    1.000
    O66      O        0.96370    0.80094    0.90070    1.000
    O67      O        0.21600    0.93471    0.81590    1.000
    C146     C        0.54860    0.89880    0.94750    1.000
    C147     C        0.21720    0.86030    0.00950    1.000
    H66      H        0.14250    0.85200    0.02250    1.000
    O68      O        0.15220    0.94740    0.00960    1.000
    C148     C        0.23400    0.89360    0.00230    1.000
    N25      N        0.63990    0.88110    0.92380    1.000
    O69      O        0.38290    0.78401    0.01790    1.000
    C149     C        0.91530    0.92180    0.86010    1.000
    H67      H        0.88900    0.94400    0.85870    1.000
    C150     C        0.10950    0.94030    0.81110    1.000
    O70      O        0.11810    0.81177    0.82880    1.000
    O71      O        0.19140    0.79084    0.01160    1.000
    C151     C        0.72250    0.90440    0.91230    1.000
    C152     C        0.34210    0.90580    0.97980    1.000
    H68      H        0.35250    0.92890    0.97250    1.000
    N26      N        0.68540    0.93420    0.92790    1.000
    C153     C        0.02640    0.82070    0.86200    1.000
    C154     C        0.87770    0.86410    0.88550    1.000
    H69      H        0.82690    0.84710    0.90240    1.000
    C155     C        0.43490    0.88430    0.96780    1.000
    C156     C        0.41830    0.85090    0.97590    1.000
    H70      H        0.48110    0.83620    0.96660    1.000
    C157     C        0.98870    0.85620    0.86060    1.000
    C158     C        0.14020    0.91770    0.01720    1.000
    C159     C        0.06370    0.88110    0.83730    1.000
    H71      H        0.14040    0.87590    0.82130    1.000
    N27      N        0.57140    0.93040    0.95100    1.000
    H72      H        0.52340    0.94610    0.96530    1.000
    C160     C        0.02650    0.91400    0.83720    1.000
    C161     C        0.29290    0.80150    0.00960    1.000
    O72      O        0.07070    0.96721    0.78680    1.000
    C162     C        0.84080    0.89620    0.88580    1.000
    Dy10     Dy       0.47966    0.23540    0.49892    1.000
    O73      O        0.04360    0.40387    0.53610    1.000
    H73      H        0.00430    0.41690    0.56360    1.000
    C163     C        0.30950    0.33800    0.49770    1.000
    O74      O        0.96370    0.30094    0.40070    1.000
    O75      O        0.21600    0.43471    0.31590    1.000
    C164     C        0.54860    0.39880    0.44750    1.000
    C165     C        0.21720    0.36030    0.50950    1.000
    H74      H        0.14250    0.35200    0.52250    1.000
    O76      O        0.15220    0.44740    0.50960    1.000
    C166     C        0.23400    0.39360    0.50230    1.000
    N28      N        0.63990    0.38110    0.42380    1.000
    O77      O        0.38290    0.28401    0.51790    1.000
    C167     C        0.91530    0.42180    0.36010    1.000
    H75      H        0.88900    0.44400    0.35870    1.000
    C168     C        0.10950    0.44030    0.31110    1.000
    O78      O        0.11810    0.31177    0.32880    1.000
    O79      O        0.19140    0.29084    0.51160    1.000
    C169     C        0.72250    0.40440    0.41230    1.000
    C170     C        0.34210    0.40580    0.47980    1.000
    H76      H        0.35250    0.42890    0.47250    1.000
    N29      N        0.68540    0.43420    0.42790    1.000
    C171     C        0.02640    0.32070    0.36200    1.000
    C172     C        0.87770    0.36410    0.38550    1.000
    H77      H        0.82690    0.34710    0.40240    1.000
    C173     C        0.43490    0.38430    0.46780    1.000
    C174     C        0.41830    0.35090    0.47590    1.000
    H78      H        0.48110    0.33620    0.46660    1.000
    C175     C        0.98870    0.35620    0.36060    1.000
    C176     C        0.14020    0.41770    0.51720    1.000
    C177     C        0.06370    0.38110    0.33730    1.000
    H79      H        0.14040    0.37590    0.32130    1.000
    N30      N        0.57140    0.43040    0.45100    1.000
    H80      H        0.52340    0.44610    0.46530    1.000
    C178     C        0.02650    0.41400    0.33720    1.000
    C179     C        0.29290    0.30150    0.50960    1.000
    O80      O        0.07070    0.46721    0.28680    1.000
    C180     C        0.84080    0.39620    0.38580    1.000
    Dy11     Dy       0.97966    0.73540    0.49892    1.000
    O81      O        0.54360    0.90387    0.53610    1.000
    H81      H        0.50430    0.91690    0.56360    1.000
    C181     C        0.80950    0.83800    0.49770    1.000
    O82      O        0.46370    0.80094    0.40070    1.000
    O83      O        0.71600    0.93471    0.31590    1.000
    C182     C        0.04860    0.89880    0.44750    1.000
    C183     C        0.71720    0.86030    0.50950    1.000
    H82      H        0.64250    0.85200    0.52250    1.000
    O84      O        0.65220    0.94740    0.50960    1.000
    C184     C        0.73400    0.89360    0.50230    1.000
    N31      N        0.13990    0.88110    0.42380    1.000
    O85      O        0.88290    0.78401    0.51790    1.000
    C185     C        0.41530    0.92180    0.36010    1.000
    H83      H        0.38900    0.94400    0.35870    1.000
    C186     C        0.60950    0.94030    0.31110    1.000
    O86      O        0.61810    0.81177    0.32880    1.000
    O87      O        0.69140    0.79084    0.51160    1.000
    C187     C        0.22250    0.90440    0.41230    1.000
    C188     C        0.84210    0.90580    0.47980    1.000
    H84      H        0.85250    0.92890    0.47250    1.000
    N32      N        0.18540    0.93420    0.42790    1.000
    C189     C        0.52640    0.82070    0.36200    1.000
    C190     C        0.37770    0.86410    0.38550    1.000
    H85      H        0.32690    0.84710    0.40240    1.000
    C191     C        0.93490    0.88430    0.46780    1.000
    C192     C        0.91830    0.85090    0.47590    1.000
    H86      H        0.98110    0.83620    0.46660    1.000
    C193     C        0.48870    0.85620    0.36060    1.000
    C194     C        0.64020    0.91770    0.51720    1.000
    C195     C        0.56370    0.88110    0.33730    1.000
    H87      H        0.64040    0.87590    0.32130    1.000
    N33      N        0.07140    0.93040    0.45100    1.000
    H88      H        0.02340    0.94610    0.46530    1.000
    C196     C        0.52650    0.91400    0.33720    1.000
    C197     C        0.79290    0.80150    0.50960    1.000
    O88      O        0.57070    0.96721    0.28680    1.000
    C198     C        0.34080    0.89620    0.38580    1.000
    Dy12     Dy       0.97966    0.23540    0.99892    1.000
    O89      O        0.54360    0.40387    0.03610    1.000
    H89      H        0.50430    0.41690    0.06360    1.000
    C199     C        0.80950    0.33800    0.99770    1.000
    O90      O        0.46370    0.30094    0.90070    1.000
    O91      O        0.71600    0.43471    0.81590    1.000
    C200     C        0.04860    0.39880    0.94750    1.000
    C201     C        0.71720    0.36030    0.00950    1.000
    H90      H        0.64250    0.35200    0.02250    1.000
    O92      O        0.65220    0.44740    0.00960    1.000
    C202     C        0.73400    0.39360    0.00230    1.000
    N34      N        0.13990    0.38110    0.92380    1.000
    O93      O        0.88290    0.28401    0.01790    1.000
    C203     C        0.41530    0.42180    0.86010    1.000
    H91      H        0.38900    0.44400    0.85870    1.000
    C204     C        0.60950    0.44030    0.81110    1.000
    O94      O        0.61810    0.31177    0.82880    1.000
    O95      O        0.69140    0.29084    0.01160    1.000
    C205     C        0.22250    0.40440    0.91230    1.000
    C206     C        0.84210    0.40580    0.97980    1.000
    H92      H        0.85250    0.42890    0.97250    1.000
    N35      N        0.18540    0.43420    0.92790    1.000
    C207     C        0.52640    0.32070    0.86200    1.000
    C208     C        0.37770    0.36410    0.88550    1.000
    H93      H        0.32690    0.34710    0.90240    1.000
    C209     C        0.93490    0.38430    0.96780    1.000
    C210     C        0.91830    0.35090    0.97590    1.000
    H94      H        0.98110    0.33620    0.96660    1.000
    C211     C        0.48870    0.35620    0.86060    1.000
    C212     C        0.64020    0.41770    0.01720    1.000
    C213     C        0.56370    0.38110    0.83730    1.000
    H95      H        0.64040    0.37590    0.82130    1.000
    N36      N        0.07140    0.43040    0.95100    1.000
    H96      H        0.02340    0.44610    0.96530    1.000
    C214     C        0.52650    0.41400    0.83720    1.000
    C215     C        0.79290    0.30150    0.00960    1.000
    O96      O        0.57070    0.46721    0.78680    1.000
    C216     C        0.34080    0.39620    0.88580    1.000
    Dy13     Dy       0.02034    0.76460    0.99892    1.000
    O97      O        0.45640    0.59613    0.03610    1.000
    H97      H        0.49570    0.58310    0.06360    1.000
    C217     C        0.19050    0.66200    0.99770    1.000
    O98      O        0.53630    0.69906    0.90070    1.000
    O99      O        0.28400    0.56529    0.81590    1.000
    C218     C        0.95140    0.60120    0.94750    1.000
    C219     C        0.28280    0.63970    0.00950    1.000
    H98      H        0.35750    0.64800    0.02250    1.000
    O100     O        0.34780    0.55260    0.00960    1.000
    C220     C        0.26600    0.60640    0.00230    1.000
    N37      N        0.86010    0.61890    0.92380    1.000
    O101     O        0.11710    0.71599    0.01790    1.000
    C221     C        0.58470    0.57820    0.86010    1.000
    H99      H        0.61100    0.55600    0.85870    1.000
    C222     C        0.39050    0.55970    0.81110    1.000
    O102     O        0.38190    0.68823    0.82880    1.000
    O103     O        0.30860    0.70916    0.01160    1.000
    C223     C        0.77750    0.59560    0.91230    1.000
    C224     C        0.15790    0.59420    0.97980    1.000
    H100     H        0.14750    0.57110    0.97250    1.000
    N38      N        0.81460    0.56580    0.92790    1.000
    C225     C        0.47360    0.67930    0.86200    1.000
    C226     C        0.62230    0.63590    0.88550    1.000
    H101     H        0.67310    0.65290    0.90240    1.000
    C227     C        0.06510    0.61570    0.96780    1.000
    C228     C        0.08170    0.64910    0.97590    1.000
    H102     H        0.01890    0.66380    0.96660    1.000
    C229     C        0.51130    0.64380    0.86060    1.000
    C230     C        0.35980    0.58230    0.01720    1.000
    C231     C        0.43630    0.61890    0.83730    1.000
    H103     H        0.35960    0.62410    0.82130    1.000
    N39      N        0.92860    0.56960    0.95100    1.000
    H104     H        0.97660    0.55390    0.96530    1.000
    C232     C        0.47350    0.58600    0.83720    1.000
    C233     C        0.20710    0.69850    0.00960    1.000
    O104     O        0.42930    0.53279    0.78680    1.000
    C234     C        0.65920    0.60380    0.88580    1.000
    Dy14     Dy       0.02034    0.26460    0.49892    1.000
    O105     O        0.45640    0.09613    0.53610    1.000
    H105     H        0.49570    0.08310    0.56360    1.000
    C235     C        0.19050    0.16200    0.49770    1.000
    O106     O        0.53630    0.19906    0.40070    1.000
    O107     O        0.28400    0.06529    0.31590    1.000
    C236     C        0.95140    0.10120    0.44750    1.000
    C237     C        0.28280    0.13970    0.50950    1.000
    H106     H        0.35750    0.14800    0.52250    1.000
    O108     O        0.34780    0.05260    0.50960    1.000
    C238     C        0.26600    0.10640    0.50230    1.000
    N40      N        0.86010    0.11890    0.42380    1.000
    O109     O        0.11710    0.21599    0.51790    1.000
    C239     C        0.58470    0.07820    0.36010    1.000
    H107     H        0.61100    0.05600    0.35870    1.000
    C240     C        0.39050    0.05970    0.31110    1.000
    O110     O        0.38190    0.18823    0.32880    1.000
    O111     O        0.30860    0.20916    0.51160    1.000
    C241     C        0.77750    0.09560    0.41230    1.000
    C242     C        0.15790    0.09420    0.47980    1.000
    H108     H        0.14750    0.07110    0.47250    1.000
    N41      N        0.81460    0.06580    0.42790    1.000
    C243     C        0.47360    0.17930    0.36200    1.000
    C244     C        0.62230    0.13590    0.38550    1.000
    H109     H        0.67310    0.15290    0.40240    1.000
    C245     C        0.06510    0.11570    0.46780    1.000
    C246     C        0.08170    0.14910    0.47590    1.000
    H110     H        0.01890    0.16380    0.46660    1.000
    C247     C        0.51130    0.14380    0.36060    1.000
    C248     C        0.35980    0.08230    0.51720    1.000
    C249     C        0.43630    0.11890    0.33730    1.000
    H111     H        0.35960    0.12410    0.32130    1.000
    N42      N        0.92860    0.06960    0.45100    1.000
    H112     H        0.97660    0.05390    0.46530    1.000
    C250     C        0.47350    0.08600    0.33720    1.000
    C251     C        0.20710    0.19850    0.50960    1.000
    O112     O        0.42930    0.03279    0.28680    1.000
    C252     C        0.65920    0.10380    0.38580    1.000
    Dy15     Dy       0.52034    0.76460    0.49892    1.000
    O113     O        0.95640    0.59613    0.53610    1.000
    H113     H        0.99570    0.58310    0.56360    1.000
    C253     C        0.69050    0.66200    0.49770    1.000
    O114     O        0.03630    0.69906    0.40070    1.000
    O115     O        0.78400    0.56529    0.31590    1.000
    C254     C        0.45140    0.60120    0.44750    1.000
    C255     C        0.78280    0.63970    0.50950    1.000
    H114     H        0.85750    0.64800    0.52250    1.000
    O116     O        0.84780    0.55260    0.50960    1.000
    C256     C        0.76600    0.60640    0.50230    1.000
    N43      N        0.36010    0.61890    0.42380    1.000
    O117     O        0.61710    0.71599    0.51790    1.000
    C257     C        0.08470    0.57820    0.36010    1.000
    H115     H        0.11100    0.55600    0.35870    1.000
    C258     C        0.89050    0.55970    0.31110    1.000
    O118     O        0.88190    0.68823    0.32880    1.000
    O119     O        0.80860    0.70916    0.51160    1.000
    C259     C        0.27750    0.59560    0.41230    1.000
    C260     C        0.65790    0.59420    0.47980    1.000
    H116     H        0.64750    0.57110    0.47250    1.000
    N44      N        0.31460    0.56580    0.42790    1.000
    C261     C        0.97360    0.67930    0.36200    1.000
    C262     C        0.12230    0.63590    0.38550    1.000
    H117     H        0.17310    0.65290    0.40240    1.000
    C263     C        0.56510    0.61570    0.46780    1.000
    C264     C        0.58170    0.64910    0.47590    1.000
    H118     H        0.51890    0.66380    0.46660    1.000
    C265     C        0.01130    0.64380    0.36060    1.000
    C266     C        0.85980    0.58230    0.51720    1.000
    C267     C        0.93630    0.61890    0.33730    1.000
    H119     H        0.85960    0.62410    0.32130    1.000
    N45      N        0.42860    0.56960    0.45100    1.000
    H120     H        0.47660    0.55390    0.46530    1.000
    C268     C        0.97350    0.58600    0.33720    1.000
    C269     C        0.70710    0.69850    0.50960    1.000
    O120     O        0.92930    0.53279    0.28680    1.000
    C270     C        0.15920    0.60380    0.38580    1.000
    Dy16     Dy       0.52034    0.26460    0.99892    1.000
    O121     O        0.95640    0.09613    0.03610    1.000
    H121     H        0.99570    0.08310    0.06360    1.000
    C271     C        0.69050    0.16200    0.99770    1.000
    O122     O        0.03630    0.19906    0.90070    1.000
    O123     O        0.78400    0.06529    0.81590    1.000
    C272     C        0.45140    0.10120    0.94750    1.000
    C273     C        0.78280    0.13970    0.00950    1.000
    H122     H        0.85750    0.14800    0.02250    1.000
    O124     O        0.84780    0.05260    0.00960    1.000
    C274     C        0.76600    0.10640    0.00230    1.000
    N46      N        0.36010    0.11890    0.92380    1.000
    O125     O        0.61710    0.21599    0.01790    1.000
    C275     C        0.08470    0.07820    0.86010    1.000
    H123     H        0.11100    0.05600    0.85870    1.000
    C276     C        0.89050    0.05970    0.81110    1.000
    O126     O        0.88190    0.18823    0.82880    1.000
    O127     O        0.80860    0.20916    0.01160    1.000
    C277     C        0.27750    0.09560    0.91230    1.000
    C278     C        0.65790    0.09420    0.97980    1.000
    H124     H        0.64750    0.07110    0.97250    1.000
    N47      N        0.31460    0.06580    0.92790    1.000
    C279     C        0.97360    0.17930    0.86200    1.000
    C280     C        0.12230    0.13590    0.88550    1.000
    H125     H        0.17310    0.15290    0.90240    1.000
    C281     C        0.56510    0.11570    0.96780    1.000
    C282     C        0.58170    0.14910    0.97590    1.000
    H126     H        0.51890    0.16380    0.96660    1.000
    C283     C        0.01130    0.14380    0.86060    1.000
    C284     C        0.85980    0.08230    0.01720    1.000
    C285     C        0.93630    0.11890    0.83730    1.000
    H127     H        0.85960    0.12410    0.82130    1.000
    N48      N        0.42860    0.06960    0.95100    1.000
    H128     H        0.47660    0.05390    0.96530    1.000
    C286     C        0.97350    0.08600    0.83720    1.000
    C287     C        0.70710    0.19850    0.00960    1.000
    O128     O        0.92930    0.03279    0.78680    1.000
    C288     C        0.15920    0.10380    0.88580    1.000
