# CIF file generated by openbabel 3.1.0, see https://openbabel.org
data_I
_chemical_name_common 'image0'
_cell_length_a 14.7409
_cell_length_b 15.3429
_cell_length_c 22.1924
_cell_angle_alpha 90
_cell_angle_beta 103.716
_cell_angle_gamma 90
_space_group_name_H-M_alt 'P 1'
_space_group_name_Hall 'P 1'
loop_
    _symmetry_equiv_pos_as_xyz
    x,y,z
loop_
    _atom_site_label
    _atom_site_type_symbol
    _atom_site_fract_x
    _atom_site_fract_y
    _atom_site_fract_z
    _atom_site_occupancy
    C1       C        0.16580    0.67440    0.16440    1.000
    H1       H        0.16630    0.61420    0.15940    1.000
    C2       C        0.16680    0.73010    0.11310    1.000
    O1       O        0.16460    0.87610    0.07600    1.000
    C3       C        0.16540    0.82110    0.11780    1.000
    C4       C        0.16130    0.85220    0.18080    1.000
    H2       H        0.15670    0.91180    0.18710    1.000
    C5       C        0.16400    0.79810    0.22920    1.000
    H3       H        0.16560    0.82050    0.26830    1.000
    C6       C        0.16430    0.70830    0.21990    1.000
    N1       N        0.16350    0.64780    0.26610    1.000
    O2       O        0.02060    0.78870    0.75480    1.000
    C7       C        0.94450    0.79510    0.77320    1.000
    C8       C        0.86150    0.78480    0.73100    1.000
    H4       H        0.86370    0.77280    0.69030    1.000
    C9       C        0.94340    0.81720    0.83510    1.000
    C10      C        0.85250    0.81680    0.84950    1.000
    H5       H        0.84970    0.82100    0.89080    1.000
    C11      C        0.77630    0.79040    0.74320    1.000
    H6       H        0.72300    0.78100    0.71180    1.000
    C12      C        0.76820    0.81060    0.80400    1.000
    N2       N        0.68860    0.81060    0.82710    1.000
    Zn1      Zn       0.15394    0.59981    0.95404    1.000
    O3       O        0.16680    0.60300    0.04850    1.000
    O4       O        0.15920    0.72870    0.00120    1.000
    C13      C        0.16380    0.68700    0.05340    1.000
    Zn2      Zn       0.14892    0.86595    0.98783    1.000
    O5       O        0.10530    0.81850    0.88020    1.000
    C14      C        0.02170    0.82840    0.88730    1.000
    N3       N        0.14500    0.00640    0.98360    1.000
    C15      C        0.21570    0.05300    0.02320    1.000
    H7       H        0.26070    0.02370    0.05270    1.000
    C16      C        0.21900    0.14320    0.01860    1.000
    H8       H        0.26630    0.17430    0.04510    1.000
    C17      C        0.15170    0.18690    0.97450    1.000
    C18      C        0.08100    0.14040    0.93490    1.000
    H9       H        0.03600    0.16960    0.90540    1.000
    C19      C        0.07770    0.05010    0.93950    1.000
    H10      H        0.03040    0.01900    0.91300    1.000
    O6       O        0.01080    0.85610    0.93910    1.000
    N4       N        0.15640    0.46380    0.95740    1.000
    C20      C        0.23970    0.41910    0.97920    1.000
    H11      H        0.29570    0.44970    0.99070    1.000
    C21      C        0.23950    0.32880    0.98390    1.000
    H12      H        0.29520    0.29890    0.99850    1.000
    C22      C        0.15580    0.28310    0.96670    1.000
    C23      C        0.07250    0.32780    0.94490    1.000
    H13      H        0.01660    0.29730    0.93340    1.000
    C24      C        0.07270    0.41820    0.94030    1.000
    H14      H        0.01700    0.44810    0.92570    1.000
    Zn3      Zn       0.15251    0.80752    0.80565    1.000
    C25      C        0.28030    0.74830    0.72860    1.000
    C26      C        0.35830    0.79180    0.84100    1.000
    C27      C        0.36460    0.77130    0.78000    1.000
    C28      C        0.45000    0.77150    0.76220    1.000
    H15      H        0.45290    0.75590    0.72220    1.000
    C29      C        0.53000    0.79580    0.80620    1.000
    C30      C        0.52690    0.81250    0.86790    1.000
    H16      H        0.58160    0.82460    0.89740    1.000
    C31      C        0.44350    0.81110    0.88430    1.000
    H17      H        0.44230    0.82300    0.92520    1.000
    C32      C        0.15280    0.64800    0.53240    1.000
    C33      C        0.15630    0.60530    0.47370    1.000
    C34      C        0.15890    0.65250    0.42180    1.000
    H18      H        0.15880    0.71280    0.42550    1.000
    C35      C        0.16160    0.61850    0.36390    1.000
    C36      C        0.16330    0.52830    0.35970    1.000
    H19      H        0.16580    0.50340    0.32200    1.000
    C37      C        0.16150    0.47230    0.41020    1.000
    H20      H        0.16200    0.41210    0.40520    1.000
    C38      C        0.15860    0.50990    0.47030    1.000
    N5       N        0.16290    0.67410    0.31700    1.000
    N6       N        0.61500    0.79330    0.78670    1.000
    O7       O        0.27980    0.78790    0.86070    1.000
    O8       O        0.19810    0.74550    0.73850    1.000
    O9       O        0.28830    0.73210    0.67550    1.000
    O10      O        0.15150    0.60790    0.58330    1.000
    O11      O        0.14580    0.72910    0.53200    1.000
    O12      O        0.15270    0.45610    0.51260    1.000
    C39      C        0.22740    0.07720    0.80860    1.000
    H21      H        0.28170    0.10630    0.82810    1.000
    C40      C        0.23260    0.99100    0.80540    1.000
    H22      H        0.29080    0.96410    0.81300    1.000
    N7       N        0.15690    0.94360    0.79160    1.000
    C41      C        0.08190    0.98750    0.77430    1.000
    H23      H        0.02700    0.95520    0.76440    1.000
    C42      C        0.06500    0.26630    0.75960    1.000
    H24      H        0.01090    0.23560    0.74160    1.000
    C43      C        0.06600    0.35620    0.75880    1.000
    H25      H        0.01290    0.38590    0.73780    1.000
    C44      C        0.15070    0.22050    0.78920    1.000
    N8       N        0.14430    0.40330    0.78860    1.000
    C45      C        0.22150    0.27220    0.82140    1.000
    H26      H        0.27490    0.24550    0.84500    1.000
    C46      C        0.21720    0.35960    0.82050    1.000
    H27      H        0.26780    0.39080    0.84330    1.000
    C47      C        0.07200    0.07050    0.76870    1.000
    H28      H        0.01370    0.09560    0.75310    1.000
    C48      C        0.15580    0.12380    0.78760    1.000
    C49      C        0.02780    0.59990    0.85180    1.000
    C50      C        0.94320    0.58510    0.79990    1.000
    C51      C        0.85740    0.58750    0.81560    1.000
    H29      H        0.85650    0.59900    0.85660    1.000
    C52      C        0.77220    0.57360    0.77280    1.000
    C53      C        0.77800    0.55030    0.71400    1.000
    H30      H        0.72340    0.53520    0.68530    1.000
    C54      C        0.85860    0.54840    0.69630    1.000
    H31      H        0.85820    0.53620    0.65520    1.000
    C55      C        0.94720    0.56550    0.74070    1.000
    C56      C        0.28820    0.51420    0.69390    1.000
    C57      C        0.36980    0.53790    0.74710    1.000
    C58      C        0.36090    0.55370    0.80700    1.000
    C59      C        0.44720    0.57410    0.85410    1.000
    H32      H        0.44450    0.58800    0.89440    1.000
    C60      C        0.53090    0.57240    0.83810    1.000
    H33      H        0.58590    0.58050    0.86830    1.000
    C61      C        0.53410    0.55890    0.77730    1.000
    C62      C        0.45660    0.53600    0.73330    1.000
    H34      H        0.46190    0.51920    0.69400    1.000
    N9       N        0.62060    0.55960    0.75700    1.000
    N10      N        0.69120    0.57670    0.79700    1.000
    O13      O        0.27880    0.55650    0.82520    1.000
    O14      O        0.20330    0.52320    0.69890    1.000
    O15      O        0.30300    0.48780    0.64520    1.000
    O16      O        0.01910    0.61150    0.90540    1.000
    O17      O        0.10910    0.59610    0.84230    1.000
    O18      O        0.02320    0.55710    0.72040    1.000
    Zn4      Zn       0.15240    0.53879    0.77490    1.000
    Zn5      Zn       0.15737    0.47769    0.59980    1.000
    C63      C        0.23060    0.29420    0.64750    1.000
    H35      H        0.28180    0.32370    0.67130    1.000
    C64      C        0.23310    0.20630    0.64820    1.000
    H36      H        0.28700    0.17860    0.66990    1.000
    C65      C        0.16260    0.15880    0.61960    1.000
    C66      C        0.08630    0.20540    0.58860    1.000
    H37      H        0.03260    0.17600    0.56810    1.000
    C67      C        0.08800    0.29480    0.58730    1.000
    H38      H        0.03490    0.32360    0.56540    1.000
    C68      C        0.23310    0.92090    0.63620    1.000
    H39      H        0.28970    0.89110    0.64500    1.000
    C69      C        0.23830    0.01130    0.63820    1.000
    H40      H        0.29580    0.03770    0.65390    1.000
    C70      C        0.16030    0.06320    0.61770    1.000
    C71      C        0.07940    0.01490    0.60530    1.000
    H41      H        0.02220    0.04360    0.59480    1.000
    C72      C        0.08070    0.92430    0.60810    1.000
    H42      H        0.02330    0.89590    0.59860    1.000
    N11      N        0.16010    0.34210    0.61510    1.000
    N12      N        0.15870    0.87350    0.62350    1.000
    Zn6      Zn       0.15565    0.74224    0.62598    1.000
    C73      C        0.83420    0.17440    0.83560    1.000
    H43      H        0.83370    0.11420    0.84060    1.000
    C74      C        0.83320    0.23010    0.88690    1.000
    O19      O        0.83540    0.37610    0.92400    1.000
    C75      C        0.83460    0.32110    0.88220    1.000
    C76      C        0.83870    0.35220    0.81920    1.000
    H44      H        0.84330    0.41180    0.81290    1.000
    C77      C        0.83600    0.29810    0.77080    1.000
    H45      H        0.83440    0.32050    0.73170    1.000
    C78      C        0.83570    0.20830    0.78010    1.000
    N13      N        0.83650    0.14780    0.73390    1.000
    O20      O        0.97940    0.28870    0.24520    1.000
    C79      C        0.05550    0.29510    0.22680    1.000
    C80      C        0.13850    0.28480    0.26900    1.000
    H46      H        0.13630    0.27280    0.30970    1.000
    C81      C        0.05660    0.31720    0.16490    1.000
    C82      C        0.14750    0.31680    0.15050    1.000
    H47      H        0.15030    0.32100    0.10920    1.000
    C83      C        0.22370    0.29040    0.25680    1.000
    H48      H        0.27700    0.28100    0.28820    1.000
    C84      C        0.23180    0.31060    0.19600    1.000
    N14      N        0.31140    0.31060    0.17290    1.000
    Zn7      Zn       0.84606    0.09981    0.04596    1.000
    O21      O        0.83320    0.10300    0.95150    1.000
    O22      O        0.84080    0.22870    0.99880    1.000
    C85      C        0.83620    0.18700    0.94660    1.000
    Zn8      Zn       0.85108    0.36595    0.01217    1.000
    O23      O        0.89470    0.31850    0.11980    1.000
    C86      C        0.97830    0.32840    0.11270    1.000
    N15      N        0.85500    0.50640    0.01640    1.000
    C87      C        0.78430    0.55300    0.97680    1.000
    H49      H        0.73930    0.52370    0.94730    1.000
    C88      C        0.78100    0.64320    0.98140    1.000
    H50      H        0.73370    0.67430    0.95490    1.000
    C89      C        0.84830    0.68690    0.02550    1.000
    C90      C        0.91900    0.64040    0.06510    1.000
    H51      H        0.96400    0.66960    0.09460    1.000
    C91      C        0.92230    0.55010    0.06050    1.000
    H52      H        0.96960    0.51900    0.08700    1.000
    O24      O        0.98920    0.35610    0.06090    1.000
    N16      N        0.84360    0.96380    0.04260    1.000
    C92      C        0.76030    0.91910    0.02080    1.000
    H53      H        0.70430    0.94970    0.00930    1.000
    C93      C        0.76050    0.82880    0.01610    1.000
    H54      H        0.70480    0.79890    0.00150    1.000
    C94      C        0.84420    0.78310    0.03330    1.000
    C95      C        0.92750    0.82780    0.05510    1.000
    H55      H        0.98340    0.79730    0.06660    1.000
    C96      C        0.92730    0.91820    0.05970    1.000
    H56      H        0.98300    0.94810    0.07430    1.000
    Zn9      Zn       0.84749    0.30752    0.19435    1.000
    C97      C        0.71970    0.24830    0.27140    1.000
    C98      C        0.64170    0.29180    0.15900    1.000
    C99      C        0.63540    0.27130    0.22000    1.000
    C100     C        0.55000    0.27150    0.23780    1.000
    H57      H        0.54710    0.25590    0.27780    1.000
    C101     C        0.47000    0.29580    0.19380    1.000
    C102     C        0.47310    0.31250    0.13210    1.000
    H58      H        0.41840    0.32460    0.10260    1.000
    C103     C        0.55650    0.31110    0.11570    1.000
    H59      H        0.55770    0.32300    0.07480    1.000
    C104     C        0.84720    0.14800    0.46760    1.000
    C105     C        0.84370    0.10530    0.52630    1.000
    C106     C        0.84110    0.15250    0.57820    1.000
    H60      H        0.84120    0.21280    0.57450    1.000
    C107     C        0.83840    0.11850    0.63610    1.000
    C108     C        0.83670    0.02830    0.64030    1.000
    H61      H        0.83420    0.00340    0.67800    1.000
    C109     C        0.83850    0.97230    0.58980    1.000
    H62      H        0.83800    0.91210    0.59480    1.000
    C110     C        0.84140    0.00990    0.52970    1.000
    N17      N        0.83710    0.17410    0.68300    1.000
    N18      N        0.38500    0.29330    0.21330    1.000
    O25      O        0.72020    0.28790    0.13930    1.000
    O26      O        0.80190    0.24550    0.26150    1.000
    O27      O        0.71170    0.23210    0.32450    1.000
    O28      O        0.84850    0.10790    0.41670    1.000
    O29      O        0.85420    0.22910    0.46800    1.000
    O30      O        0.84730    0.95610    0.48740    1.000
    C111     C        0.77260    0.57720    0.19140    1.000
    H63      H        0.71830    0.60630    0.17190    1.000
    C112     C        0.76740    0.49100    0.19460    1.000
    H64      H        0.70920    0.46410    0.18700    1.000
    N19      N        0.84310    0.44360    0.20840    1.000
    C113     C        0.91810    0.48750    0.22570    1.000
    H65      H        0.97300    0.45520    0.23560    1.000
    C114     C        0.93500    0.76630    0.24040    1.000
    H66      H        0.98910    0.73560    0.25840    1.000
    C115     C        0.93400    0.85620    0.24120    1.000
    H67      H        0.98710    0.88590    0.26220    1.000
    C116     C        0.84930    0.72050    0.21080    1.000
    N20      N        0.85570    0.90330    0.21140    1.000
    C117     C        0.77850    0.77220    0.17860    1.000
    H68      H        0.72510    0.74550    0.15500    1.000
    C118     C        0.78280    0.85960    0.17950    1.000
    H69      H        0.73220    0.89080    0.15670    1.000
    C119     C        0.92800    0.57050    0.23130    1.000
    H70      H        0.98630    0.59560    0.24690    1.000
    C120     C        0.84420    0.62380    0.21240    1.000
    C121     C        0.97220    0.09990    0.14820    1.000
    C122     C        0.05680    0.08510    0.20010    1.000
    C123     C        0.14260    0.08750    0.18440    1.000
    H71      H        0.14350    0.09900    0.14340    1.000
    C124     C        0.22780    0.07360    0.22720    1.000
    C125     C        0.22200    0.05030    0.28600    1.000
    H72      H        0.27660    0.03520    0.31470    1.000
    C126     C        0.14140    0.04840    0.30370    1.000
    H73      H        0.14180    0.03620    0.34480    1.000
    C127     C        0.05280    0.06550    0.25930    1.000
    C128     C        0.71180    0.01420    0.30610    1.000
    C129     C        0.63020    0.03790    0.25290    1.000
    C130     C        0.63910    0.05370    0.19300    1.000
    C131     C        0.55280    0.07410    0.14590    1.000
    H74      H        0.55550    0.08800    0.10560    1.000
    C132     C        0.46910    0.07240    0.16190    1.000
    H75      H        0.41410    0.08050    0.13170    1.000
    C133     C        0.46590    0.05890    0.22270    1.000
    C134     C        0.54340    0.03600    0.26670    1.000
    H76      H        0.53810    0.01920    0.30600    1.000
    N21      N        0.37940    0.05960    0.24300    1.000
    N22      N        0.30880    0.07670    0.20300    1.000
    O31      O        0.72120    0.05650    0.17480    1.000
    O32      O        0.79670    0.02320    0.30110    1.000
    O33      O        0.69700    0.98780    0.35480    1.000
    O34      O        0.98090    0.11150    0.09460    1.000
    O35      O        0.89090    0.09610    0.15770    1.000
    O36      O        0.97680    0.05710    0.27960    1.000
    Zn10     Zn       0.84760    0.03879    0.22510    1.000
    Zn11     Zn       0.84263    0.97769    0.40020    1.000
    C135     C        0.76940    0.79420    0.35250    1.000
    H77      H        0.71820    0.82370    0.32870    1.000
    C136     C        0.76690    0.70630    0.35180    1.000
    H78      H        0.71300    0.67860    0.33010    1.000
    C137     C        0.83740    0.65880    0.38040    1.000
    C138     C        0.91370    0.70540    0.41140    1.000
    H79      H        0.96740    0.67600    0.43190    1.000
    C139     C        0.91200    0.79480    0.41270    1.000
    H80      H        0.96510    0.82360    0.43460    1.000
    C140     C        0.76690    0.42090    0.36380    1.000
    H81      H        0.71030    0.39110    0.35500    1.000
    C141     C        0.76170    0.51130    0.36180    1.000
    H82      H        0.70420    0.53770    0.34610    1.000
    C142     C        0.83970    0.56320    0.38230    1.000
    C143     C        0.92060    0.51490    0.39470    1.000
    H83      H        0.97780    0.54360    0.40520    1.000
    C144     C        0.91930    0.42430    0.39190    1.000
    H84      H        0.97670    0.39590    0.40140    1.000
    N23      N        0.83990    0.84210    0.38490    1.000
    N24      N        0.84130    0.37350    0.37650    1.000
    Zn12     Zn       0.84435    0.24224    0.37402    1.000
