# CIF file generated by openbabel 3.1.0, see https://openbabel.org
data_I
_chemical_name_common 'image0'
_cell_length_a 11.1066
_cell_length_b 12.9842
_cell_length_c 13.4294
_cell_angle_alpha 117.345
_cell_angle_beta 93.688
_cell_angle_gamma 93.879
_space_group_name_H-M_alt 'P 1'
_space_group_name_Hall 'P 1'
loop_
    _symmetry_equiv_pos_as_xyz
    x,y,z
loop_
    _atom_site_label
    _atom_site_type_symbol
    _atom_site_fract_x
    _atom_site_fract_y
    _atom_site_fract_z
    _atom_site_occupancy
    As1      As       0.99170    0.58690    0.88380    1.000
    As2      As       0.22800    0.82440    0.76720    1.000
    As3      As       0.06990    0.91950    0.10530    1.000
    As4      As       0.24890    0.33350    0.75140    1.000
    As5      As       0.55230    0.94300    0.62290    1.000
    As6      As       0.57180    0.45100    0.63070    1.000
    Fe1      Fe       0.94560    0.79800    0.82290    1.000
    Fe2      Fe       0.49660    0.20580    0.65670    1.000
    Fe3      Fe       0.97490    0.30820    0.83410    1.000
    Fe4      Fe       0.47030    0.69990    0.64650    1.000
    O1       O        0.98200    0.44220    0.80680    1.000
    O2       O        0.94980    0.62740    0.01320    1.000
    O3       O        0.90750    0.63490    0.80810    1.000
    O4       O        0.08900    0.75170    0.74270    1.000
    O5       O        0.32500    0.72150    0.72370    1.000
    O6       O        0.99390    0.84720    0.97910    1.000
    O7       O        0.03030    0.05250    0.18020    1.000
    O8       O        0.05380    0.85300    0.18590    1.000
    O9       O        0.11910    0.26210    0.75540    1.000
    O10      O        0.35380    0.24060    0.73850    1.000
    O11      O        0.58290    0.90290    0.49130    1.000
    O12      O        0.50340    0.07320    0.69470    1.000
    O13      O        0.45330    0.84370    0.62970    1.000
    O14      O        0.48180    0.34810    0.63760    1.000
    O15      O        0.51410    0.57780    0.69280    1.000
    O16      O        0.60470    0.41450    0.50040    1.000
    O17      O        0.77160    0.83440    0.86790    1.000
    O18      O        0.84080    0.72590    0.66270    1.000
    O19      O        0.60470    0.30810    0.80810    1.000
    O20      O        0.66930    0.18590    0.60170    1.000
    O21      O        0.80030    0.34230    0.88110    1.000
    O22      O        0.86610    0.22780    0.67170    1.000
    O23      O        0.57880    0.80840    0.79530    1.000
    O24      O        0.64570    0.68910    0.58670    1.000
    C1       C        0.71860    0.30130    0.80100    1.000
    C2       C        0.75530    0.23290    0.68060    1.000
    C3       C        0.69100    0.79750    0.78700    1.000
    C4       C        0.72860    0.73290    0.66830    1.000
    As7      As       0.00830    0.41310    0.11620    1.000
    As8      As       0.77200    0.17560    0.23280    1.000
    As9      As       0.93010    0.08050    0.89470    1.000
    As10     As       0.75110    0.66650    0.24860    1.000
    As11     As       0.44770    0.05700    0.37710    1.000
    As12     As       0.42820    0.54900    0.36930    1.000
    Fe5      Fe       0.05440    0.20200    0.17710    1.000
    Fe6      Fe       0.50340    0.79420    0.34330    1.000
    Fe7      Fe       0.02510    0.69180    0.16590    1.000
    Fe8      Fe       0.52970    0.30010    0.35350    1.000
    O25      O        0.01800    0.55780    0.19320    1.000
    O26      O        0.05020    0.37260    0.98680    1.000
    O27      O        0.09250    0.36510    0.19190    1.000
    O28      O        0.91100    0.24830    0.25730    1.000
    O29      O        0.67500    0.27850    0.27630    1.000
    O30      O        0.00610    0.15280    0.02090    1.000
    O31      O        0.96970    0.94750    0.81980    1.000
    O32      O        0.94620    0.14700    0.81410    1.000
    O33      O        0.88090    0.73790    0.24460    1.000
    O34      O        0.64620    0.75940    0.26150    1.000
    O35      O        0.41710    0.09710    0.50870    1.000
    O36      O        0.49660    0.92680    0.30530    1.000
    O37      O        0.54670    0.15630    0.37030    1.000
    O38      O        0.51820    0.65190    0.36240    1.000
    O39      O        0.48590    0.42220    0.30720    1.000
    O40      O        0.39530    0.58550    0.49960    1.000
    O41      O        0.22840    0.16560    0.13210    1.000
    O42      O        0.15920    0.27410    0.33730    1.000
    O43      O        0.39530    0.69190    0.19190    1.000
    O44      O        0.33070    0.81410    0.39830    1.000
    O45      O        0.19970    0.65770    0.11890    1.000
    O46      O        0.13390    0.77220    0.32830    1.000
    O47      O        0.42120    0.19160    0.20470    1.000
    O48      O        0.35430    0.31090    0.41330    1.000
    C5       C        0.28140    0.69870    0.19900    1.000
    C6       C        0.24470    0.76710    0.31940    1.000
    C7       C        0.30900    0.20250    0.21300    1.000
    C8       C        0.27140    0.26710    0.33170    1.000
