# CIF file generated by openbabel 3.1.0, see https://openbabel.org
data_I
_chemical_name_common 'image0'
_cell_length_a 11.6918
_cell_length_b 11.6918
_cell_length_c 13.8937
_cell_angle_alpha 90
_cell_angle_beta 90
_cell_angle_gamma 120
_space_group_name_H-M_alt 'P 1'
_space_group_name_Hall 'P 1'
loop_
    _symmetry_equiv_pos_as_xyz
    x,y,z
loop_
    _atom_site_label
    _atom_site_type_symbol
    _atom_site_fract_x
    _atom_site_fract_y
    _atom_site_fract_z
    _atom_site_occupancy
    Ti1      Ti       0.50222    0.18541    0.33954    1.000
    Ti2      Ti       0.52601    0.75748    0.83941    1.000
    O1       O        0.49607    0.58217    0.77594    1.000
    O2       O        0.44321    0.26530    0.44215    1.000
    O3       O        0.27530    0.44675    0.70826    1.000
    O4       O        0.56912    0.46938    0.44127    1.000
    O5       O        0.47220    0.67679    0.95422    1.000
    O6       O        0.46704    0.24305    0.22840    1.000
    O7       O        0.38707    0.47570    0.88495    1.000
    O8       O        0.53363    0.45961    0.26160    1.000
    C1       C        0.45667    0.37945    0.45490    1.000
    C2       C        0.39952    0.50179    0.72811    1.000
    C3       C        0.32975    0.37092    0.48360    1.000
    C4       C        0.45350    0.43161    0.66332    1.000
    C5       C        0.37426    0.50796    0.51891    1.000
    C6       C        0.34446    0.28729    0.64496    1.000
    C7       C        0.48833    0.54335    0.58692    1.000
    C8       C        0.25125    0.27553    0.56392    1.000
    C9       C        0.58904    0.44705    0.01710    1.000
    C10      C        0.39310    0.33823    0.11772    1.000
    C11      C        0.45617    0.32244    0.02734    1.000
    C12      C        0.35579    0.44461    0.11582    1.000
    C13      C        0.48451    0.57230    0.10616    1.000
    C14      C        0.56345    0.56272    0.01346    1.000
    C15      C        0.46195    0.56337    0.93953    1.000
    C16      C        0.47501    0.35543    0.21212    1.000
    Ti3      Ti       0.81459    0.31681    0.33954    1.000
    Ti4      Ti       0.24252    0.76853    0.83941    1.000
    O9       O        0.41783    0.91390    0.77594    1.000
    O10      O        0.73470    0.17791    0.44215    1.000
    O11      O        0.55325    0.82855    0.70826    1.000
    O12      O        0.53062    0.09974    0.44127    1.000
    O13      O        0.32321    0.79541    0.95422    1.000
    O14      O        0.75695    0.22399    0.22840    1.000
    O15      O        0.52430    0.91137    0.88495    1.000
    O16      O        0.54039    0.07402    0.26160    1.000
    C17      C        0.62055    0.07722    0.45490    1.000
    C18      C        0.49821    0.89773    0.72811    1.000
    C19      C        0.62908    0.95883    0.48360    1.000
    C20      C        0.56839    0.02189    0.66332    1.000
    C21      C        0.49204    0.86630    0.51891    1.000
    C22      C        0.71271    0.05717    0.64496    1.000
    C23      C        0.45665    0.94498    0.58692    1.000
    C24      C        0.72447    0.97572    0.56392    1.000
    C25      C        0.55295    0.14199    0.01710    1.000
    C26      C        0.66177    0.05487    0.11772    1.000
    C27      C        0.67756    0.13373    0.02734    1.000
    C28      C        0.55539    0.91118    0.11582    1.000
    C29      C        0.42770    0.91221    0.10616    1.000
    C30      C        0.43728    0.00073    0.01346    1.000
    C31      C        0.43663    0.89858    0.93953    1.000
    C32      C        0.64457    0.11958    0.21212    1.000
    Ti5      Ti       0.68319    0.49778    0.33954    1.000
    Ti6      Ti       0.23147    0.47399    0.83941    1.000
    O17      O        0.08610    0.50393    0.77594    1.000
    O18      O        0.82209    0.55679    0.44215    1.000
    O19      O        0.17145    0.72470    0.70826    1.000
    O20      O        0.90026    0.43088    0.44127    1.000
    O21      O        0.20459    0.52780    0.95422    1.000
    O22      O        0.77601    0.53296    0.22840    1.000
    O23      O        0.08863    0.61293    0.88495    1.000
    O24      O        0.92598    0.46637    0.26160    1.000
    C33      C        0.92278    0.54333    0.45490    1.000
    C34      C        0.10227    0.60048    0.72811    1.000
    C35      C        0.04117    0.67025    0.48360    1.000
    C36      C        0.97811    0.54650    0.66332    1.000
    C37      C        0.13370    0.62574    0.51891    1.000
    C38      C        0.94283    0.65554    0.64496    1.000
    C39      C        0.05502    0.51167    0.58692    1.000
    C40      C        0.02428    0.74875    0.56392    1.000
    C41      C        0.85801    0.41096    0.01710    1.000
    C42      C        0.94513    0.60690    0.11772    1.000
    C43      C        0.86627    0.54383    0.02734    1.000
    C44      C        0.08882    0.64421    0.11582    1.000
    C45      C        0.08779    0.51549    0.10616    1.000
    C46      C        0.99927    0.43655    0.01346    1.000
    C47      C        0.10142    0.53805    0.93953    1.000
    C48      C        0.88042    0.52499    0.21212    1.000
    O25      O        0.33333    0.66667    0.80382    1.000
    O26      O        0.66667    0.33333    0.33550    1.000
