# CIF file generated by openbabel 3.1.0, see https://openbabel.org
data_I
_chemical_name_common 'image0'
_cell_length_a 9.615
_cell_length_b 21.122
_cell_length_c 13.152
_cell_angle_alpha 90
_cell_angle_beta 91.126
_cell_angle_gamma 90
_space_group_name_H-M_alt 'P 1'
_space_group_name_Hall 'P 1'
loop_
    _symmetry_equiv_pos_as_xyz
    x,y,z
loop_
    _atom_site_label
    _atom_site_type_symbol
    _atom_site_fract_x
    _atom_site_fract_y
    _atom_site_fract_z
    _atom_site_occupancy
    Cd1      Cd       0.89741    0.08969    0.22756    1.000
    C1       C        0.95860    0.26660    0.78920    1.000
    H1       H        0.99770    0.26760    0.72510    1.000
    C2       C        0.96060    0.21000    0.84290    1.000
    H2       H        0.99740    0.17370    0.81400    1.000
    C3       C        0.90790    0.20830    0.93850    1.000
    C4       C        0.85480    0.26270    0.97710    1.000
    H3       H        0.82090    0.26340    0.04280    1.000
    C5       C        0.85130    0.31730    0.91810    1.000
    H4       H        0.81110    0.35360    0.94460    1.000
    C6       C        0.90850    0.14780    0.99900    1.000
    C7       C        0.59380    0.07980    0.12080    1.000
    H5       H        0.65370    0.07390    0.06690    1.000
    C8       C        0.45450    0.07220    0.10370    1.000
    H6       H        0.42150    0.05950    0.04000    1.000
    C9       C        0.36210    0.08340    0.18100    1.000
    C10      C        0.41870    0.10090    0.27400    1.000
    H7       H        0.36080    0.10910    0.32830    1.000
    C11      C        0.55940    0.10610    0.28650    1.000
    H8       H        0.59540    0.11760    0.35000    1.000
    C12      C        0.20750    0.07330    0.16560    1.000
    N1       N        0.90300    0.31970    0.82580    1.000
    N2       N        0.64770    0.09520    0.21120    1.000
    N3       N        0.87540    0.99630    0.14310    1.000
    N4       N        0.80180    0.95410    0.16370    1.000
    N5       N        0.73630    0.91190    0.18600    1.000
    O1       O        0.91200    0.09690    0.95030    1.000
    O2       O        0.89730    0.15450    0.09270    1.000
    O3       O        0.17330    0.05120    0.08290    1.000
    O4       O        0.13220    0.08840    0.23620    1.000
    Cd2      Cd       0.10259    0.58969    0.27244    1.000
    C13      C        0.04140    0.76660    0.71080    1.000
    H9       H        0.00230    0.76760    0.77490    1.000
    C14      C        0.03940    0.71000    0.65710    1.000
    H10      H        0.00260    0.67370    0.68600    1.000
    C15      C        0.09210    0.70830    0.56150    1.000
    C16      C        0.14520    0.76270    0.52290    1.000
    H11      H        0.17910    0.76340    0.45720    1.000
    C17      C        0.14870    0.81730    0.58190    1.000
    H12      H        0.18890    0.85360    0.55540    1.000
    C18      C        0.09150    0.64780    0.50100    1.000
    C19      C        0.40620    0.57980    0.37920    1.000
    H13      H        0.34630    0.57390    0.43310    1.000
    C20      C        0.54550    0.57220    0.39630    1.000
    H14      H        0.57850    0.55950    0.46000    1.000
    C21      C        0.63790    0.58340    0.31900    1.000
    C22      C        0.58130    0.60090    0.22600    1.000
    H15      H        0.63920    0.60910    0.17170    1.000
    C23      C        0.44060    0.60610    0.21350    1.000
    H16      H        0.40460    0.61760    0.15000    1.000
    C24      C        0.79250    0.57330    0.33440    1.000
    N6       N        0.09700    0.81970    0.67420    1.000
    N7       N        0.35230    0.59520    0.28880    1.000
    N8       N        0.12460    0.49630    0.35690    1.000
    N9       N        0.19820    0.45410    0.33630    1.000
    N10      N        0.26370    0.41190    0.31400    1.000
    O5       O        0.08800    0.59690    0.54970    1.000
    O6       O        0.10270    0.65450    0.40730    1.000
    O7       O        0.82670    0.55120    0.41710    1.000
    O8       O        0.86780    0.58840    0.26380    1.000
    Cd3      Cd       0.10259    0.91031    0.77244    1.000
    C25      C        0.04140    0.73340    0.21080    1.000
    H17      H        0.00230    0.73240    0.27490    1.000
    C26      C        0.03940    0.79000    0.15710    1.000
    H18      H        0.00260    0.82630    0.18600    1.000
    C27      C        0.09210    0.79170    0.06150    1.000
    C28      C        0.14520    0.73730    0.02290    1.000
    H19      H        0.17910    0.73660    0.95720    1.000
    C29      C        0.14870    0.68270    0.08190    1.000
    H20      H        0.18890    0.64640    0.05540    1.000
    C30      C        0.09150    0.85220    0.00100    1.000
    C31      C        0.40620    0.92020    0.87920    1.000
    H21      H        0.34630    0.92610    0.93310    1.000
    C32      C        0.54550    0.92780    0.89630    1.000
    H22      H        0.57850    0.94050    0.96000    1.000
    C33      C        0.63790    0.91660    0.81900    1.000
    C34      C        0.58130    0.89910    0.72600    1.000
    H23      H        0.63920    0.89090    0.67170    1.000
    C35      C        0.44060    0.89390    0.71350    1.000
    H24      H        0.40460    0.88240    0.65000    1.000
    C36      C        0.79250    0.92670    0.83440    1.000
    N11      N        0.09700    0.68030    0.17420    1.000
    N12      N        0.35230    0.90480    0.78880    1.000
    N13      N        0.12460    0.00370    0.85690    1.000
    N14      N        0.19820    0.04590    0.83630    1.000
    N15      N        0.26370    0.08810    0.81400    1.000
    O9       O        0.08800    0.90310    0.04970    1.000
    O10      O        0.10270    0.84550    0.90730    1.000
    O11      O        0.82670    0.94880    0.91710    1.000
    O12      O        0.86780    0.91160    0.76380    1.000
    Cd4      Cd       0.89741    0.41031    0.72756    1.000
    C37      C        0.95860    0.23340    0.28920    1.000
    H25      H        0.99770    0.23240    0.22510    1.000
    C38      C        0.96060    0.29000    0.34290    1.000
    H26      H        0.99740    0.32630    0.31400    1.000
    C39      C        0.90790    0.29170    0.43850    1.000
    C40      C        0.85480    0.23730    0.47710    1.000
    H27      H        0.82090    0.23660    0.54280    1.000
    C41      C        0.85130    0.18270    0.41810    1.000
    H28      H        0.81110    0.14640    0.44460    1.000
    C42      C        0.90850    0.35220    0.49900    1.000
    C43      C        0.59380    0.42020    0.62080    1.000
    H29      H        0.65370    0.42610    0.56690    1.000
    C44      C        0.45450    0.42780    0.60370    1.000
    H30      H        0.42150    0.44050    0.54000    1.000
    C45      C        0.36210    0.41660    0.68100    1.000
    C46      C        0.41870    0.39910    0.77400    1.000
    H31      H        0.36080    0.39090    0.82830    1.000
    C47      C        0.55940    0.39390    0.78650    1.000
    H32      H        0.59540    0.38240    0.85000    1.000
    C48      C        0.20750    0.42670    0.66560    1.000
    N16      N        0.90300    0.18030    0.32580    1.000
    N17      N        0.64770    0.40480    0.71120    1.000
    N18      N        0.87540    0.50370    0.64310    1.000
    N19      N        0.80180    0.54590    0.66370    1.000
    N20      N        0.73630    0.58810    0.68600    1.000
    O13      O        0.91200    0.40310    0.45030    1.000
    O14      O        0.89730    0.34550    0.59270    1.000
    O15      O        0.17330    0.44880    0.58290    1.000
    O16      O        0.13220    0.41160    0.73620    1.000
    Cd5      Cd       0.00000    0.00000    0.00000    1.000
    Cd6      Cd       0.00000    0.50000    0.50000    1.000
