# CIF file generated by openbabel 3.1.0, see https://openbabel.org
data_I
_chemical_name_common 'GIRFUJ_clean'
_cell_length_a 7.7399
_cell_length_b 9.951
_cell_length_c 15.091
_cell_angle_alpha 90
_cell_angle_beta 98.51
_cell_angle_gamma 90
_space_group_name_H-M_alt 'P 1'
_space_group_name_Hall 'P 1'
loop_
    _symmetry_equiv_pos_as_xyz
    x,y,z
loop_
    _atom_site_label
    _atom_site_type_symbol
    _atom_site_fract_x
    _atom_site_fract_y
    _atom_site_fract_z
    _atom_site_occupancy
    Ce1      Ce       0.35723    0.04340    0.64044    1.000
    Ce2      Ce       0.14277    0.54340    0.85956    1.000
    Ce3      Ce       0.64277    0.95660    0.35956    1.000
    Ce4      Ce       0.85723    0.45660    0.14044    1.000
    H1       H        0.11800    0.30200    0.48220    1.000
    H2       H        0.32500    0.61000    0.63160    1.000
    H3       H        0.29500    0.60700    0.36120    1.000
    H4       H        0.38200    0.80200    0.01780    1.000
    H5       H        0.17500    0.11000    0.86840    1.000
    H6       H        0.20500    0.10700    0.13880    1.000
    H7       H        0.88200    0.69800    0.51780    1.000
    H8       H        0.67500    0.39000    0.36840    1.000
    H9       H        0.70500    0.39300    0.63880    1.000
    H10      H        0.61800    0.19800    0.98220    1.000
    H11      H        0.82500    0.89000    0.13160    1.000
    H12      H        0.79500    0.89300    0.86120    1.000
    C1       C        0.19120    0.36380    0.65403    1.000
    C2       C        0.21990    0.44125    0.57256    1.000
    C3       C        0.17040    0.38600    0.48816    1.000
    C4       C        0.27370    0.56640    0.41811    1.000
    C5       C        0.32510    0.63090    0.49923    1.000
    C6       C        0.29530    0.56840    0.57780    1.000
    C7       C        0.41140    0.76630    0.50131    1.000
    C8       C        0.95690    0.96797    0.53829    1.000
    C9       C        0.30880    0.86380    0.84597    1.000
    C10      C        0.28010    0.94125    0.92744    1.000
    C11      C        0.32960    0.88600    0.01184    1.000
    C12      C        0.22630    0.06640    0.08189    1.000
    C13      C        0.17490    0.13090    0.00077    1.000
    C14      C        0.20470    0.06840    0.92220    1.000
    C15      C        0.08860    0.26630    0.99869    1.000
    C16      C        0.54310    0.46797    0.96171    1.000
    C17      C        0.80880    0.63620    0.34597    1.000
    C18      C        0.78010    0.55875    0.42744    1.000
    C19      C        0.82960    0.61400    0.51184    1.000
    C20      C        0.72630    0.43360    0.58189    1.000
    C21      C        0.67490    0.36910    0.50077    1.000
    C22      C        0.70470    0.43160    0.42220    1.000
    C23      C        0.58860    0.23370    0.49869    1.000
    C24      C        0.04310    0.03203    0.46171    1.000
    C25      C        0.69120    0.13620    0.15403    1.000
    C26      C        0.71990    0.05875    0.07256    1.000
    C27      C        0.67040    0.11400    0.98816    1.000
    C28      C        0.77370    0.93360    0.91811    1.000
    C29      C        0.82510    0.86910    0.99923    1.000
    C30      C        0.79530    0.93160    0.07780    1.000
    C31      C        0.91140    0.73370    0.00131    1.000
    C32      C        0.45690    0.53203    0.03829    1.000
    N1       N        0.19320    0.44597    0.41179    1.000
    N2       N        0.30680    0.94597    0.08821    1.000
    N3       N        0.80680    0.55403    0.58821    1.000
    N4       N        0.69320    0.05403    0.91179    1.000
    O1       O        0.16351    0.23861    0.64493    1.000
    O2       O        0.19610    0.42423    0.72685    1.000
    O3       O        0.47190    0.80262    0.43308    1.000
    O4       O        0.41660    0.83408    0.57182    1.000
    O5       O        0.05310    0.94721    0.61127    1.000
    O6       O        0.79755    0.94016    0.52055    1.000
    O7       O        0.33649    0.73861    0.85507    1.000
    O8       O        0.30390    0.92423    0.77315    1.000
    O9       O        0.02810    0.30262    0.06692    1.000
    O10      O        0.08340    0.33408    0.92818    1.000
    O11      O        0.44690    0.44721    0.88873    1.000
    O12      O        0.70245    0.44016    0.97945    1.000
    O13      O        0.83649    0.76139    0.35507    1.000
    O14      O        0.80390    0.57577    0.27315    1.000
    O15      O        0.52810    0.19738    0.56692    1.000
    O16      O        0.58340    0.16592    0.42818    1.000
    O17      O        0.94690    0.05279    0.38873    1.000
    O18      O        0.20245    0.05984    0.47945    1.000
    O19      O        0.66351    0.26139    0.14493    1.000
    O20      O        0.69610    0.07577    0.22685    1.000
    O21      O        0.97190    0.69738    0.93308    1.000
    O22      O        0.91660    0.66592    0.07182    1.000
    O23      O        0.55310    0.55279    0.11127    1.000
    O24      O        0.29755    0.55984    0.02055    1.000
