# CIF file generated by openbabel 3.1.0, see https://openbabel.org
data_I
_chemical_name_common 'image0'
_cell_length_a 8.517
_cell_length_b 10.3341
_cell_length_c 18.2392
_cell_angle_alpha 104.782
_cell_angle_beta 91.187
_cell_angle_gamma 110.479
_space_group_name_H-M_alt 'P 1'
_space_group_name_Hall 'P 1'
loop_
    _symmetry_equiv_pos_as_xyz
    x,y,z
loop_
    _atom_site_label
    _atom_site_type_symbol
    _atom_site_fract_x
    _atom_site_fract_y
    _atom_site_fract_z
    _atom_site_occupancy
    Zn1      Zn       0.67065    0.81002    0.21816    1.000
    Zn2      Zn       0.96237    0.13835    0.30935    1.000
    O1       O        0.52460    0.60787    0.17217    1.000
    O2       O        0.09590    0.34770    0.35855    1.000
    O3       O        0.85910    0.42920    0.42017    1.000
    H1       H        0.94870    0.41950    0.40640    1.000
    O4       O        0.64500    0.86010    0.32596    1.000
    O5       O        0.74350    0.14270    0.26767    1.000
    O6       O        0.74060    0.60590    0.24138    1.000
    O7       O        0.86570    0.85420    0.16052    1.000
    O8       O        0.23940    0.20713    0.35696    1.000
    O9       O        0.56660    0.93720    0.18729    1.000
    O10      O        0.86530    0.05430    0.39052    1.000
    O11      O        0.03140    0.08560    0.20708    1.000
    O12      O        0.99050    0.65330    0.41258    1.000
    C1       C        0.60300    0.54180    0.20051    1.000
    C2       C        0.52070    0.38080    0.18078    1.000
    C3       C        0.23600    0.33000    0.37129    1.000
    C4       C        0.52800    0.72020    0.44790    1.000
    C5       C        0.71810    0.96320    0.38374    1.000
    C6       C        0.52840    0.15400    0.18954    1.000
    C7       C        0.59950    0.30350    0.20978    1.000
    H2       H        0.70190    0.35300    0.24340    1.000
    C8       C        0.86270    0.55730    0.41848    1.000
    C9       C        0.51340    0.86350    0.47338    1.000
    C10      C        0.37680    0.08160    0.14129    1.000
    H3       H        0.32800    0.97950    0.12790    1.000
    C11      C        0.14010    0.07930    0.05699    1.000
    C12      C        0.14550    0.09340    0.98293    1.000
    H4       H        0.24530    0.15800    0.97090    1.000
    C13      C        0.38240    0.59700    0.42513    1.000
    H5       H        0.27490    0.60560    0.42640    1.000
    C14      C        0.61970    0.07150    0.21734    1.000
    C15      C        0.54840    0.44690    0.40019    1.000
    H6       H        0.55540    0.35420    0.38500    1.000
    C16      C        0.96220    0.97330    0.15374    1.000
    C17      C        0.36930    0.30780    0.13237    1.000
    H7       H        0.31560    0.36060    0.11270    1.000
    C18      C        0.61410    0.98100    0.44853    1.000
    C19      C        0.68500    0.70590    0.44576    1.000
    H8       H        0.78560    0.78910    0.46030    1.000
    C20      C        0.39210    0.46100    0.40043    1.000
    C21      C        0.99120    0.98440    0.07395    1.000
    C22      C        0.29610    0.15800    0.11255    1.000
    C23      C        0.69470    0.56990    0.42237    1.000
    C24      C        0.39910    0.88470    0.52445    1.000
    H9       H        0.32900    0.80620    0.54110    1.000
    Zn3      Zn       0.32935    0.18998    0.78184    1.000
    Zn4      Zn       0.03763    0.86165    0.69065    1.000
    O13      O        0.47540    0.39213    0.82783    1.000
    O14      O        0.90410    0.65230    0.64145    1.000
    O15      O        0.14090    0.57080    0.57983    1.000
    H10      H        0.05130    0.58050    0.59360    1.000
    O16      O        0.35500    0.13990    0.67404    1.000
    O17      O        0.25650    0.85730    0.73233    1.000
    O18      O        0.25940    0.39410    0.75862    1.000
    O19      O        0.13430    0.14580    0.83948    1.000
    O20      O        0.76060    0.79287    0.64304    1.000
    O21      O        0.43340    0.06280    0.81271    1.000
    O22      O        0.13470    0.94570    0.60948    1.000
    O23      O        0.96860    0.91440    0.79292    1.000
    O24      O        0.00950    0.34670    0.58742    1.000
    C25      C        0.39700    0.45820    0.79949    1.000
    C26      C        0.47930    0.61920    0.81922    1.000
    C27      C        0.76400    0.67000    0.62871    1.000
    C28      C        0.47200    0.27980    0.55210    1.000
    C29      C        0.28190    0.03680    0.61626    1.000
    C30      C        0.47160    0.84600    0.81046    1.000
    C31      C        0.40050    0.69650    0.79022    1.000
    H11      H        0.29810    0.64700    0.75660    1.000
    C32      C        0.13730    0.44270    0.58152    1.000
    C33      C        0.48660    0.13650    0.52662    1.000
    C34      C        0.62320    0.91840    0.85871    1.000
    H12      H        0.67200    0.02050    0.87210    1.000
    C35      C        0.85990    0.92070    0.94301    1.000
    C36      C        0.85450    0.90660    0.01707    1.000
    H13      H        0.75470    0.84200    0.02910    1.000
    C37      C        0.61760    0.40300    0.57487    1.000
    H14      H        0.72510    0.39440    0.57360    1.000
    C38      C        0.38030    0.92850    0.78266    1.000
    C39      C        0.45160    0.55310    0.59981    1.000
    H15      H        0.44460    0.64580    0.61500    1.000
    C40      C        0.03780    0.02670    0.84626    1.000
    C41      C        0.63070    0.69220    0.86763    1.000
    H16      H        0.68440    0.63940    0.88730    1.000
    C42      C        0.38590    0.01900    0.55147    1.000
    C43      C        0.31500    0.29410    0.55424    1.000
    H17      H        0.21440    0.21090    0.53970    1.000
    C44      C        0.60790    0.53900    0.59957    1.000
    C45      C        0.00880    0.01560    0.92605    1.000
    C46      C        0.70390    0.84200    0.88745    1.000
    C47      C        0.30530    0.43010    0.57763    1.000
    C48      C        0.60090    0.11530    0.47555    1.000
    H18      H        0.67100    0.19380    0.45890    1.000
