# CIF file generated by openbabel 3.1.0, see https://openbabel.org
data_I
_chemical_name_common 'image0'
_cell_length_a 38.1861
_cell_length_b 5.0042
_cell_length_c 8.381
_cell_angle_alpha 90
_cell_angle_beta 102.535
_cell_angle_gamma 90
_space_group_name_H-M_alt 'P 1'
_space_group_name_Hall 'P 1'
loop_
    _symmetry_equiv_pos_as_xyz
    x,y,z
loop_
    _atom_site_label
    _atom_site_type_symbol
    _atom_site_fract_x
    _atom_site_fract_y
    _atom_site_fract_z
    _atom_site_occupancy
    O1       O        0.35778    0.75100    0.20450    1.000
    O2       O        0.16559    0.24620    0.31360    1.000
    O3       O        0.40497    0.76340    0.04630    1.000
    O4       O        0.85778    0.25100    0.20450    1.000
    O5       O        0.66559    0.74620    0.31360    1.000
    O6       O        0.90497    0.26340    0.04630    1.000
    O7       O        0.64222    0.75100    0.79550    1.000
    O8       O        0.83441    0.24620    0.68640    1.000
    O9       O        0.59503    0.76340    0.95370    1.000
    O10      O        0.14222    0.25100    0.79550    1.000
    O11      O        0.33441    0.74620    0.68640    1.000
    O12      O        0.09503    0.26340    0.95370    1.000
    O13      O        0.64222    0.24900    0.79550    1.000
    O14      O        0.83441    0.75380    0.68640    1.000
    O15      O        0.59503    0.23660    0.95370    1.000
    O16      O        0.14222    0.74900    0.79550    1.000
    O17      O        0.33441    0.25380    0.68640    1.000
    O18      O        0.09503    0.73660    0.95370    1.000
    O19      O        0.35778    0.24900    0.20450    1.000
    O20      O        0.16559    0.75380    0.31360    1.000
    O21      O        0.40497    0.23660    0.04630    1.000
    O22      O        0.85778    0.74900    0.20450    1.000
    O23      O        0.66559    0.25380    0.31360    1.000
    O24      O        0.90497    0.73660    0.04630    1.000
    Al1      Al       0.10799    0.00000    0.84580    1.000
    P1       P        0.34711    0.00000    0.28780    1.000
    O25      O        0.36584    0.00000    0.46370    1.000
    O26      O        0.15639    0.00000    0.04570    1.000
    P2       P        0.17615    0.00000    0.23130    1.000
    Al2      Al       0.36248    0.00000    0.64530    1.000
    P3       P        0.41614    0.00000    0.95810    1.000
    O27      O        0.39864    0.00000    0.77780    1.000
    C1       C        0.29855    0.00000    0.27170    1.000
    C2       C        0.27548    0.00000    0.11960    1.000
    C3       C        0.23843    0.00000    0.10730    1.000
    C4       C        0.22477    0.00000    0.24740    1.000
    C5       C        0.24784    0.00000    0.39960    1.000
    C6       C        0.28489    0.00000    0.41180    1.000
    C7       C        0.46314    0.00000    0.98240    1.000
    C8       C        0.47829    0.00000    0.84569    1.000
    C9       C        0.48465    0.00000    0.13510    1.000
    H1       H        0.28496    0.00000    0.02242    1.000
    H2       H        0.22242    0.00000    0.00175    1.000
    H3       H        0.23837    0.00000    0.49671    1.000
    H4       H        0.30089    0.00000    0.51737    1.000
    H5       H        0.46313    0.00000    0.73810    1.000
    H6       H        0.47420    0.00000    0.22949    1.000
    Al3      Al       0.60799    0.50000    0.84580    1.000
    P4       P        0.84711    0.50000    0.28780    1.000
    O28      O        0.86584    0.50000    0.46370    1.000
    O29      O        0.65639    0.50000    0.04570    1.000
    P5       P        0.67615    0.50000    0.23130    1.000
    Al4      Al       0.86248    0.50000    0.64530    1.000
    P6       P        0.91614    0.50000    0.95810    1.000
    O30      O        0.89864    0.50000    0.77780    1.000
    C10      C        0.79855    0.50000    0.27170    1.000
    C11      C        0.77548    0.50000    0.11960    1.000
    C12      C        0.73843    0.50000    0.10730    1.000
    C13      C        0.72477    0.50000    0.24740    1.000
    C14      C        0.74784    0.50000    0.39960    1.000
    C15      C        0.78489    0.50000    0.41180    1.000
    C16      C        0.96314    0.50000    0.98240    1.000
    C17      C        0.97829    0.50000    0.84569    1.000
    C18      C        0.98465    0.50000    0.13510    1.000
    H7       H        0.78496    0.50000    0.02242    1.000
    H8       H        0.72242    0.50000    0.00175    1.000
    H9       H        0.73837    0.50000    0.49671    1.000
    H10      H        0.80089    0.50000    0.51737    1.000
    H11      H        0.96313    0.50000    0.73810    1.000
    H12      H        0.97420    0.50000    0.22949    1.000
    Al5      Al       0.89201    0.00000    0.15420    1.000
    P7       P        0.65289    0.00000    0.71220    1.000
    O31      O        0.63416    0.00000    0.53630    1.000
    O32      O        0.84361    0.00000    0.95430    1.000
    P8       P        0.82385    0.00000    0.76870    1.000
    Al6      Al       0.63752    0.00000    0.35470    1.000
    P9       P        0.58386    0.00000    0.04190    1.000
    O33      O        0.60136    0.00000    0.22220    1.000
    C19      C        0.70145    0.00000    0.72830    1.000
    C20      C        0.72452    0.00000    0.88040    1.000
    C21      C        0.76157    0.00000    0.89270    1.000
    C22      C        0.77523    0.00000    0.75260    1.000
    C23      C        0.75216    0.00000    0.60040    1.000
    C24      C        0.71511    0.00000    0.58820    1.000
    C25      C        0.53686    0.00000    0.01760    1.000
    C26      C        0.52171    0.00000    0.15431    1.000
    C27      C        0.51535    0.00000    0.86490    1.000
    H13      H        0.71504    0.00000    0.97758    1.000
    H14      H        0.77758    0.00000    0.99825    1.000
    H15      H        0.76163    0.00000    0.50329    1.000
    H16      H        0.69911    0.00000    0.48263    1.000
    H17      H        0.53687    0.00000    0.26190    1.000
    H18      H        0.52580    0.00000    0.77051    1.000
    Al7      Al       0.39201    0.50000    0.15420    1.000
    P10      P        0.15289    0.50000    0.71220    1.000
    O34      O        0.13416    0.50000    0.53630    1.000
    O35      O        0.34361    0.50000    0.95430    1.000
    P11      P        0.32385    0.50000    0.76870    1.000
    Al8      Al       0.13752    0.50000    0.35470    1.000
    P12      P        0.08386    0.50000    0.04190    1.000
    O36      O        0.10136    0.50000    0.22220    1.000
    C28      C        0.20145    0.50000    0.72830    1.000
    C29      C        0.22452    0.50000    0.88040    1.000
    C30      C        0.26157    0.50000    0.89270    1.000
    C31      C        0.27523    0.50000    0.75260    1.000
    C32      C        0.25216    0.50000    0.60040    1.000
    C33      C        0.21511    0.50000    0.58820    1.000
    C34      C        0.03686    0.50000    0.01760    1.000
    C35      C        0.02171    0.50000    0.15431    1.000
    C36      C        0.01535    0.50000    0.86490    1.000
    H19      H        0.21504    0.50000    0.97758    1.000
    H20      H        0.27758    0.50000    0.99825    1.000
    H21      H        0.26163    0.50000    0.50329    1.000
    H22      H        0.19911    0.50000    0.48263    1.000
    H23      H        0.03687    0.50000    0.26190    1.000
    H24      H        0.02580    0.50000    0.77051    1.000
