# CIF file generated by openbabel 3.1.0, see https://openbabel.org
data_I
_chemical_name_common 'ja500618z_si_006_clean'
_cell_length_a 8.5471
_cell_length_b 9.0496
_cell_length_c 12.0046
_cell_angle_alpha 90
_cell_angle_beta 90
_cell_angle_gamma 90
_space_group_name_H-M_alt 'P 1'
_space_group_name_Hall 'P 1'
loop_
    _symmetry_equiv_pos_as_xyz
    x,y,z
loop_
    _atom_site_label
    _atom_site_type_symbol
    _atom_site_fract_x
    _atom_site_fract_y
    _atom_site_fract_z
    _atom_site_occupancy
    Mn1      Mn       0.74966    0.75000    0.25000    1.000
    Mn2      Mn       0.24966    0.25000    0.25000    1.000
    Mn3      Mn       0.75034    0.75000    0.75000    1.000
    Mn4      Mn       0.25034    0.25000    0.75000    1.000
    H1       H        0.91940    0.06470    0.73160    1.000
    H2       H        0.08060    0.93530    0.26840    1.000
    H3       H        0.25000    0.20640    0.00000    1.000
    H4       H        0.58060    0.06470    0.26840    1.000
    H5       H        0.41940    0.56470    0.76840    1.000
    H6       H        0.58060    0.43530    0.23160    1.000
    H7       H        0.75000    0.70640    0.50000    1.000
    H8       H        0.91940    0.43530    0.76840    1.000
    H9       H        0.08060    0.56470    0.23160    1.000
    H10      H        0.25000    0.29360    0.50000    1.000
    H11      H        0.75000    0.79360    0.00000    1.000
    H12      H        0.41940    0.93530    0.73160    1.000
    C1       C        0.25000    0.19090    0.50000    1.000
    C2       C        0.51760    0.48432    0.28278    1.000
    C3       C        0.48240    0.51568    0.71722    1.000
    C4       C        0.75000    0.69090    0.00000    1.000
    C5       C        0.01760    0.51568    0.28278    1.000
    C6       C        0.75000    0.80910    0.50000    1.000
    C7       C        0.51760    0.01568    0.21722    1.000
    C8       C        0.01760    0.98432    0.21722    1.000
    C9       C        0.98240    0.48432    0.71722    1.000
    C10      C        0.48240    0.98432    0.78278    1.000
    C11      C        0.98240    0.01568    0.78278    1.000
    C12      C        0.25000    0.30910    0.00000    1.000
    O1       O        0.24557    0.13000    0.59213    1.000
    O2       O        0.09710    0.08373    0.81917    1.000
    O3       O        0.44416    0.11170    0.80833    1.000
    O4       O        0.90290    0.91627    0.18083    1.000
    O5       O        0.94416    0.88830    0.80833    1.000
    O6       O        0.09710    0.41627    0.68083    1.000
    O7       O        0.05584    0.38830    0.30833    1.000
    O8       O        0.74557    0.63000    0.90787    1.000
    O9       O        0.24557    0.37000    0.90787    1.000
    O10      O        0.59710    0.91627    0.81917    1.000
    O11      O        0.05584    0.11170    0.19167    1.000
    O12      O        0.75443    0.87000    0.40787    1.000
    O13      O        0.90290    0.58373    0.31917    1.000
    O14      O        0.55584    0.88830    0.19167    1.000
    O15      O        0.74557    0.87000    0.59213    1.000
    O16      O        0.59710    0.58373    0.68083    1.000
    O17      O        0.25443    0.13000    0.40787    1.000
    O18      O        0.40290    0.08373    0.18083    1.000
    O19      O        0.94416    0.61170    0.69167    1.000
    O20      O        0.25443    0.37000    0.09213    1.000
    O21      O        0.40290    0.41627    0.31917    1.000
    O22      O        0.44416    0.38830    0.69167    1.000
    O23      O        0.75443    0.63000    0.09213    1.000
    O24      O        0.55584    0.61170    0.30833    1.000
