# CIF file generated by openbabel 3.1.0, see https://openbabel.org
data_I
_chemical_name_common 'image0'
_cell_length_a 15.1902
_cell_length_b 16.8168
_cell_length_c 22.68
_cell_angle_alpha 90
_cell_angle_beta 97.214
_cell_angle_gamma 90
_space_group_name_H-M_alt 'P 1'
_space_group_name_Hall 'P 1'
loop_
    _symmetry_equiv_pos_as_xyz
    x,y,z
loop_
    _atom_site_label
    _atom_site_type_symbol
    _atom_site_fract_x
    _atom_site_fract_y
    _atom_site_fract_z
    _atom_site_occupancy
    N1       N        0.00114    0.00448    0.09368    1.000
    N2       N        0.10263    0.08674    0.00816    1.000
    C1       C        0.93340    0.03480    0.11869    1.000
    H1       H        0.88590    0.05650    0.09404    1.000
    C2       C        0.93030    0.03540    0.17933    1.000
    H2       H        0.88090    0.05590    0.19452    1.000
    C3       C        0.00070    0.00561    0.21730    1.000
    C4       C        0.07260    0.97680    0.19165    1.000
    H3       H        0.12240    0.95760    0.21546    1.000
    C5       C        0.06970    0.97680    0.13052    1.000
    H4       H        0.11820    0.95630    0.11417    1.000
    C6       C        0.18350    0.07706    0.99167    1.000
    H5       H        0.20070    0.02604    0.98216    1.000
    C7       C        0.24280    0.13840    0.98800    1.000
    H6       H        0.29780    0.12840    0.97550    1.000
    C8       C        0.22008    0.21548    0.00305    1.000
    C9       C        0.13910    0.22421    0.02414    1.000
    H7       H        0.12220    0.27371    0.03714    1.000
    C10      C        0.08340    0.15995    0.02597    1.000
    H8       H        0.02940    0.16780    0.04040    1.000
    N3       N        0.50114    0.50448    0.09368    1.000
    N4       N        0.60263    0.58674    0.00816    1.000
    C11      C        0.43340    0.53480    0.11869    1.000
    H9       H        0.38590    0.55650    0.09404    1.000
    C12      C        0.43030    0.53540    0.17933    1.000
    H10      H        0.38090    0.55590    0.19452    1.000
    C13      C        0.50070    0.50561    0.21730    1.000
    C14      C        0.57260    0.47680    0.19165    1.000
    H11      H        0.62240    0.45760    0.21546    1.000
    C15      C        0.56970    0.47680    0.13052    1.000
    H12      H        0.61820    0.45630    0.11417    1.000
    C16      C        0.68350    0.57706    0.99167    1.000
    H13      H        0.70070    0.52604    0.98216    1.000
    C17      C        0.74280    0.63840    0.98800    1.000
    H14      H        0.79780    0.62840    0.97550    1.000
    C18      C        0.72008    0.71548    0.00305    1.000
    C19      C        0.63910    0.72421    0.02414    1.000
    H15      H        0.62220    0.77371    0.03714    1.000
    C20      C        0.58340    0.65995    0.02597    1.000
    H16      H        0.52940    0.66780    0.04040    1.000
    N5       N        0.99886    0.00448    0.40632    1.000
    N6       N        0.89737    0.08674    0.49184    1.000
    C21      C        0.06660    0.03480    0.38131    1.000
    H17      H        0.11410    0.05650    0.40596    1.000
    C22      C        0.06970    0.03540    0.32067    1.000
    H18      H        0.11910    0.05590    0.30548    1.000
    C23      C        0.99930    0.00561    0.28270    1.000
    C24      C        0.92740    0.97680    0.30835    1.000
    H19      H        0.87760    0.95760    0.28454    1.000
    C25      C        0.93030    0.97680    0.36948    1.000
    H20      H        0.88180    0.95630    0.38583    1.000
    C26      C        0.81650    0.07706    0.50833    1.000
    H21      H        0.79930    0.02604    0.51784    1.000
    C27      C        0.75720    0.13840    0.51200    1.000
    H22      H        0.70220    0.12840    0.52450    1.000
    C28      C        0.77992    0.21548    0.49695    1.000
    C29      C        0.86090    0.22421    0.47586    1.000
    H23      H        0.87780    0.27371    0.46286    1.000
    C30      C        0.91660    0.15995    0.47403    1.000
    H24      H        0.97060    0.16780    0.45960    1.000
    N7       N        0.49886    0.50448    0.40632    1.000
    N8       N        0.39737    0.58674    0.49184    1.000
    C31      C        0.56660    0.53480    0.38131    1.000
    H25      H        0.61410    0.55650    0.40596    1.000
    C32      C        0.56970    0.53540    0.32067    1.000
    H26      H        0.61910    0.55590    0.30548    1.000
    C33      C        0.49930    0.50561    0.28270    1.000
    C34      C        0.42740    0.47680    0.30835    1.000
    H27      H        0.37760    0.45760    0.28454    1.000
    C35      C        0.43030    0.47680    0.36948    1.000
    H28      H        0.38180    0.45630    0.38583    1.000
    C36      C        0.31650    0.57706    0.50833    1.000
    H29      H        0.29930    0.52604    0.51784    1.000
    C37      C        0.25720    0.63840    0.51200    1.000
    H30      H        0.20220    0.62840    0.52450    1.000
    C38      C        0.27992    0.71548    0.49695    1.000
    C39      C        0.36090    0.72421    0.47586    1.000
    H31      H        0.37780    0.77371    0.46286    1.000
    C40      C        0.41660    0.65995    0.47403    1.000
    H32      H        0.47060    0.66780    0.45960    1.000
    N9       N        0.99886    0.99552    0.90632    1.000
    N10      N        0.89737    0.91326    0.99184    1.000
    C41      C        0.06660    0.96520    0.88131    1.000
    H33      H        0.11410    0.94350    0.90596    1.000
    C42      C        0.06970    0.96460    0.82067    1.000
    H34      H        0.11910    0.94410    0.80548    1.000
    C43      C        0.99930    0.99439    0.78270    1.000
    C44      C        0.92740    0.02320    0.80835    1.000
    H35      H        0.87760    0.04240    0.78454    1.000
    C45      C        0.93030    0.02320    0.86948    1.000
    H36      H        0.88180    0.04370    0.88583    1.000
    C46      C        0.81650    0.92294    0.00833    1.000
    H37      H        0.79930    0.97396    0.01784    1.000
    C47      C        0.75720    0.86160    0.01200    1.000
    H38      H        0.70220    0.87160    0.02450    1.000
    C48      C        0.77992    0.78452    0.99695    1.000
    C49      C        0.86090    0.77579    0.97586    1.000
    H39      H        0.87780    0.72629    0.96286    1.000
    C50      C        0.91660    0.84005    0.97403    1.000
    H40      H        0.97060    0.83220    0.95960    1.000
    N11      N        0.49886    0.49552    0.90632    1.000
    N12      N        0.39737    0.41326    0.99184    1.000
    C51      C        0.56660    0.46520    0.88131    1.000
    H41      H        0.61410    0.44350    0.90596    1.000
    C52      C        0.56970    0.46460    0.82067    1.000
    H42      H        0.61910    0.44410    0.80548    1.000
    C53      C        0.49930    0.49439    0.78270    1.000
    C54      C        0.42740    0.52320    0.80835    1.000
    H43      H        0.37760    0.54240    0.78454    1.000
    C55      C        0.43030    0.52320    0.86948    1.000
    H44      H        0.38180    0.54370    0.88583    1.000
    C56      C        0.31650    0.42294    0.00833    1.000
    H45      H        0.29930    0.47396    0.01784    1.000
    C57      C        0.25720    0.36160    0.01200    1.000
    H46      H        0.20220    0.37160    0.02450    1.000
    C58      C        0.27992    0.28452    0.99695    1.000
    C59      C        0.36090    0.27579    0.97586    1.000
    H47      H        0.37780    0.22629    0.96286    1.000
    C60      C        0.41660    0.34005    0.97403    1.000
    H48      H        0.47060    0.33220    0.95960    1.000
    N13      N        0.00114    0.99552    0.59368    1.000
    N14      N        0.10263    0.91326    0.50816    1.000
    C61      C        0.93340    0.96520    0.61869    1.000
    H49      H        0.88590    0.94350    0.59404    1.000
    C62      C        0.93030    0.96460    0.67933    1.000
    H50      H        0.88090    0.94410    0.69452    1.000
    C63      C        0.00070    0.99439    0.71730    1.000
    C64      C        0.07260    0.02320    0.69165    1.000
    H51      H        0.12240    0.04240    0.71546    1.000
    C65      C        0.06970    0.02320    0.63052    1.000
    H52      H        0.11820    0.04370    0.61417    1.000
    C66      C        0.18350    0.92294    0.49167    1.000
    H53      H        0.20070    0.97396    0.48216    1.000
    C67      C        0.24280    0.86160    0.48800    1.000
    H54      H        0.29780    0.87160    0.47550    1.000
    C68      C        0.22008    0.78452    0.50305    1.000
    C69      C        0.13910    0.77579    0.52414    1.000
    H55      H        0.12220    0.72629    0.53714    1.000
    C70      C        0.08340    0.84005    0.52597    1.000
    H56      H        0.02940    0.83220    0.54040    1.000
    N15      N        0.50114    0.49552    0.59368    1.000
    N16      N        0.60263    0.41326    0.50816    1.000
    C71      C        0.43340    0.46520    0.61869    1.000
    H57      H        0.38590    0.44350    0.59404    1.000
    C72      C        0.43030    0.46460    0.67933    1.000
    H58      H        0.38090    0.44410    0.69452    1.000
    C73      C        0.50070    0.49439    0.71730    1.000
    C74      C        0.57260    0.52320    0.69165    1.000
    H59      H        0.62240    0.54240    0.71546    1.000
    C75      C        0.56970    0.52320    0.63052    1.000
    H60      H        0.61820    0.54370    0.61417    1.000
    C76      C        0.68350    0.42294    0.49167    1.000
    H61      H        0.70070    0.47396    0.48216    1.000
    C77      C        0.74280    0.36160    0.48800    1.000
    H62      H        0.79780    0.37160    0.47550    1.000
    C78      C        0.72008    0.28452    0.50305    1.000
    C79      C        0.63910    0.27579    0.52414    1.000
    H63      H        0.62220    0.22629    0.53714    1.000
    C80      C        0.58340    0.34005    0.52597    1.000
    H64      H        0.52940    0.33220    0.54040    1.000
    Ni1      Ni       0.00000    0.00000    0.00000    1.000
    Ni2      Ni       0.50000    0.50000    0.00000    1.000
    Ni3      Ni       0.00000    0.00000    0.50000    1.000
    Ni4      Ni       0.50000    0.50000    0.50000    1.000
