# CIF file generated by openbabel 3.1.0, see https://openbabel.org
data_I
_chemical_name_common 'image0'
_cell_length_a 17.302
_cell_length_b 17.302
_cell_length_c 22.789
_cell_angle_alpha 90
_cell_angle_beta 90
_cell_angle_gamma 90
_space_group_name_H-M_alt 'P 1'
_space_group_name_Hall 'P 1'
loop_
    _symmetry_equiv_pos_as_xyz
    x,y,z
loop_
    _atom_site_label
    _atom_site_type_symbol
    _atom_site_fract_x
    _atom_site_fract_y
    _atom_site_fract_z
    _atom_site_occupancy
    N1       N        0.27080    0.12830    0.46280    1.000
    N2       N        0.26610    0.87180    0.49920    1.000
    C1       C        0.29600    0.06900    0.47220    1.000
    C2       C        0.33450    0.00090    0.48510    1.000
    C3       C        0.29330    0.93100    0.49270    1.000
    C4       C        0.41900    0.99990    0.49350    1.000
    C5       C        0.46240    0.06670    0.48420    1.000
    C6       C        0.45820    0.93360    0.50870    1.000
    C7       C        0.19420    0.28480    0.58620    1.000
    C8       C        0.19180    0.28610    0.64710    1.000
    C9       C        0.28500    0.19090    0.77680    1.000
    C10      C        0.28390    0.19430    0.83670    1.000
    C11      C        0.21770    0.80730    0.62480    1.000
    C12      C        0.21680    0.80950    0.68510    1.000
    N3       N        0.22920    0.37170    0.46280    1.000
    N4       N        0.23390    0.62820    0.49920    1.000
    C13      C        0.20400    0.43100    0.47220    1.000
    C14      C        0.16550    0.49910    0.48510    1.000
    C15      C        0.20670    0.56900    0.49270    1.000
    C16      C        0.08100    0.50010    0.49350    1.000
    C17      C        0.03760    0.43330    0.48420    1.000
    C18      C        0.04180    0.56640    0.50870    1.000
    C19      C        0.30580    0.21520    0.58620    1.000
    C20      C        0.30820    0.21390    0.64710    1.000
    C21      C        0.21500    0.30910    0.77680    1.000
    C22      C        0.21610    0.30570    0.83670    1.000
    C23      C        0.28230    0.69270    0.62480    1.000
    C24      C        0.28320    0.69050    0.68510    1.000
    N5       N        0.37170    0.27080    0.46280    1.000
    N6       N        0.62820    0.26610    0.49920    1.000
    C25      C        0.43100    0.29600    0.47220    1.000
    C26      C        0.49910    0.33450    0.48510    1.000
    C27      C        0.56900    0.29330    0.49270    1.000
    C28      C        0.50010    0.41900    0.49350    1.000
    C29      C        0.43330    0.46240    0.48420    1.000
    C30      C        0.56640    0.45820    0.50870    1.000
    C31      C        0.21520    0.19420    0.58620    1.000
    C32      C        0.21390    0.19180    0.64710    1.000
    C33      C        0.30910    0.28500    0.77680    1.000
    C34      C        0.30570    0.28390    0.83670    1.000
    C35      C        0.69270    0.21770    0.62480    1.000
    C36      C        0.69050    0.21680    0.68510    1.000
    N7       N        0.12830    0.22920    0.46280    1.000
    N8       N        0.87180    0.23390    0.49920    1.000
    C37      C        0.06900    0.20400    0.47220    1.000
    C38      C        0.00090    0.16550    0.48510    1.000
    C39      C        0.93100    0.20670    0.49270    1.000
    C40      C        0.99990    0.08100    0.49350    1.000
    C41      C        0.06670    0.03760    0.48420    1.000
    C42      C        0.93360    0.04180    0.50870    1.000
    C43      C        0.28480    0.30580    0.58620    1.000
    C44      C        0.28610    0.30820    0.64710    1.000
    C45      C        0.19090    0.21500    0.77680    1.000
    C46      C        0.19430    0.21610    0.83670    1.000
    C47      C        0.80730    0.28230    0.62480    1.000
    C48      C        0.80950    0.28320    0.68510    1.000
    N9       N        0.72920    0.62830    0.03720    1.000
    N10      N        0.73390    0.37180    0.00080    1.000
    C49      C        0.70400    0.56900    0.02780    1.000
    C50      C        0.66550    0.50090    0.01490    1.000
    C51      C        0.70670    0.43100    0.00730    1.000
    C52      C        0.58100    0.49990    0.00650    1.000
    C53      C        0.53760    0.56670    0.01580    1.000
    C54      C        0.54180    0.43360    0.99130    1.000
    C55      C        0.80580    0.78480    0.91380    1.000
    C56      C        0.80820    0.78610    0.85290    1.000
    C57      C        0.71500    0.69090    0.72320    1.000
    C58      C        0.71610    0.69430    0.66330    1.000
    C59      C        0.78230    0.30730    0.87520    1.000
    C60      C        0.78320    0.30950    0.81490    1.000
    N11      N        0.77080    0.87170    0.03720    1.000
    N12      N        0.76610    0.12820    0.00080    1.000
    C61      C        0.79600    0.93100    0.02780    1.000
    C62      C        0.83450    0.99910    0.01490    1.000
    C63      C        0.79330    0.06900    0.00730    1.000
    C64      C        0.91900    0.00010    0.00650    1.000
    C65      C        0.96240    0.93330    0.01580    1.000
    C66      C        0.95820    0.06640    0.99130    1.000
    C67      C        0.69420    0.71520    0.91380    1.000
    C68      C        0.69180    0.71390    0.85290    1.000
    C69      C        0.78500    0.80910    0.72320    1.000
    C70      C        0.78390    0.80570    0.66330    1.000
    C71      C        0.71770    0.19270    0.87520    1.000
    C72      C        0.71680    0.19050    0.81490    1.000
    N13      N        0.62830    0.77080    0.03720    1.000
    N14      N        0.37180    0.76610    0.00080    1.000
    C73      C        0.56900    0.79600    0.02780    1.000
    C74      C        0.50090    0.83450    0.01490    1.000
    C75      C        0.43100    0.79330    0.00730    1.000
    C76      C        0.49990    0.91900    0.00650    1.000
    C77      C        0.56670    0.96240    0.01580    1.000
    C78      C        0.43360    0.95820    0.99130    1.000
    C79      C        0.78480    0.69420    0.91380    1.000
    C80      C        0.78610    0.69180    0.85290    1.000
    C81      C        0.69090    0.78500    0.72320    1.000
    C82      C        0.69430    0.78390    0.66330    1.000
    C83      C        0.30730    0.71770    0.87520    1.000
    C84      C        0.30950    0.71680    0.81490    1.000
    N15      N        0.87170    0.72920    0.03720    1.000
    N16      N        0.12820    0.73390    0.00080    1.000
    C85      C        0.93100    0.70400    0.02780    1.000
    C86      C        0.99910    0.66550    0.01490    1.000
    C87      C        0.06900    0.70670    0.00730    1.000
    C88      C        0.00010    0.58100    0.00650    1.000
    C89      C        0.93330    0.53760    0.01580    1.000
    C90      C        0.06640    0.54180    0.99130    1.000
    C91      C        0.71520    0.80580    0.91380    1.000
    C92      C        0.71390    0.80820    0.85290    1.000
    C93      C        0.80910    0.71500    0.72320    1.000
    C94      C        0.80570    0.71610    0.66330    1.000
    C95      C        0.19270    0.78230    0.87520    1.000
    C96      C        0.19050    0.78320    0.81490    1.000
    N17      N        0.72920    0.87170    0.53720    1.000
    N18      N        0.73390    0.12820    0.50080    1.000
    C97      C        0.70400    0.93100    0.52780    1.000
    C98      C        0.66550    0.99910    0.51490    1.000
    C99      C        0.70670    0.06900    0.50730    1.000
    C100     C        0.58100    0.00010    0.50650    1.000
    C101     C        0.53760    0.93330    0.51580    1.000
    C102     C        0.54180    0.06640    0.49130    1.000
    C103     C        0.80580    0.71520    0.41380    1.000
    C104     C        0.80820    0.71390    0.35290    1.000
    C105     C        0.71500    0.80910    0.22320    1.000
    C106     C        0.71610    0.80570    0.16330    1.000
    C107     C        0.78230    0.19270    0.37520    1.000
    C108     C        0.78320    0.19050    0.31490    1.000
    N19      N        0.77080    0.62830    0.53720    1.000
    N20      N        0.76610    0.37180    0.50080    1.000
    C109     C        0.79600    0.56900    0.52780    1.000
    C110     C        0.83450    0.50090    0.51490    1.000
    C111     C        0.79330    0.43100    0.50730    1.000
    C112     C        0.91900    0.49990    0.50650    1.000
    C113     C        0.96240    0.56670    0.51580    1.000
    C114     C        0.95820    0.43360    0.49130    1.000
    C115     C        0.69420    0.78480    0.41380    1.000
    C116     C        0.69180    0.78610    0.35290    1.000
    C117     C        0.78500    0.69090    0.22320    1.000
    C118     C        0.78390    0.69430    0.16330    1.000
    C119     C        0.71770    0.30730    0.37520    1.000
    C120     C        0.71680    0.30950    0.31490    1.000
    N21      N        0.62830    0.72920    0.53720    1.000
    N22      N        0.37180    0.73390    0.50080    1.000
    C121     C        0.56900    0.70400    0.52780    1.000
    C122     C        0.50090    0.66550    0.51490    1.000
    C123     C        0.43100    0.70670    0.50730    1.000
    C124     C        0.49990    0.58100    0.50650    1.000
    C125     C        0.56670    0.53760    0.51580    1.000
    C126     C        0.43360    0.54180    0.49130    1.000
    C127     C        0.78480    0.80580    0.41380    1.000
    C128     C        0.78610    0.80820    0.35290    1.000
    C129     C        0.69090    0.71500    0.22320    1.000
    C130     C        0.69430    0.71610    0.16330    1.000
    C131     C        0.30730    0.78230    0.37520    1.000
    C132     C        0.30950    0.78320    0.31490    1.000
    N23      N        0.87170    0.77080    0.53720    1.000
    N24      N        0.12820    0.76610    0.50080    1.000
    C133     C        0.93100    0.79600    0.52780    1.000
    C134     C        0.99910    0.83450    0.51490    1.000
    C135     C        0.06900    0.79330    0.50730    1.000
    C136     C        0.00010    0.91900    0.50650    1.000
    C137     C        0.93330    0.96240    0.51580    1.000
    C138     C        0.06640    0.95820    0.49130    1.000
    C139     C        0.71520    0.69420    0.41380    1.000
    C140     C        0.71390    0.69180    0.35290    1.000
    C141     C        0.80910    0.78500    0.22320    1.000
    C142     C        0.80570    0.78390    0.16330    1.000
    C143     C        0.19270    0.71770    0.37520    1.000
    C144     C        0.19050    0.71680    0.31490    1.000
    N25      N        0.27080    0.37170    0.96280    1.000
    N26      N        0.26610    0.62820    0.99920    1.000
    C145     C        0.29600    0.43100    0.97220    1.000
    C146     C        0.33450    0.49910    0.98510    1.000
    C147     C        0.29330    0.56900    0.99270    1.000
    C148     C        0.41900    0.50010    0.99350    1.000
    C149     C        0.46240    0.43330    0.98420    1.000
    C150     C        0.45820    0.56640    0.00870    1.000
    C151     C        0.19420    0.21520    0.08620    1.000
    C152     C        0.19180    0.21390    0.14710    1.000
    C153     C        0.28500    0.30910    0.27680    1.000
    C154     C        0.28390    0.30570    0.33670    1.000
    C155     C        0.21770    0.69270    0.12480    1.000
    C156     C        0.21680    0.69050    0.18510    1.000
    N27      N        0.22920    0.12830    0.96280    1.000
    N28      N        0.23390    0.87180    0.99920    1.000
    C157     C        0.20400    0.06900    0.97220    1.000
    C158     C        0.16550    0.00090    0.98510    1.000
    C159     C        0.20670    0.93100    0.99270    1.000
    C160     C        0.08100    0.99990    0.99350    1.000
    C161     C        0.03760    0.06670    0.98420    1.000
    C162     C        0.04180    0.93360    0.00870    1.000
    C163     C        0.30580    0.28480    0.08620    1.000
    C164     C        0.30820    0.28610    0.14710    1.000
    C165     C        0.21500    0.19090    0.27680    1.000
    C166     C        0.21610    0.19430    0.33670    1.000
    C167     C        0.28230    0.80730    0.12480    1.000
    C168     C        0.28320    0.80950    0.18510    1.000
    N29      N        0.37170    0.22920    0.96280    1.000
    N30      N        0.62820    0.23390    0.99920    1.000
    C169     C        0.43100    0.20400    0.97220    1.000
    C170     C        0.49910    0.16550    0.98510    1.000
    C171     C        0.56900    0.20670    0.99270    1.000
    C172     C        0.50010    0.08100    0.99350    1.000
    C173     C        0.43330    0.03760    0.98420    1.000
    C174     C        0.56640    0.04180    0.00870    1.000
    C175     C        0.21520    0.30580    0.08620    1.000
    C176     C        0.21390    0.30820    0.14710    1.000
    C177     C        0.30910    0.21500    0.27680    1.000
    C178     C        0.30570    0.21610    0.33670    1.000
    C179     C        0.69270    0.28230    0.12480    1.000
    C180     C        0.69050    0.28320    0.18510    1.000
    N31      N        0.12830    0.27080    0.96280    1.000
    N32      N        0.87180    0.26610    0.99920    1.000
    C181     C        0.06900    0.29600    0.97220    1.000
    C182     C        0.00090    0.33450    0.98510    1.000
    C183     C        0.93100    0.29330    0.99270    1.000
    C184     C        0.99990    0.41900    0.99350    1.000
    C185     C        0.06670    0.46240    0.98420    1.000
    C186     C        0.93360    0.45820    0.00870    1.000
    C187     C        0.28480    0.19420    0.08620    1.000
    C188     C        0.28610    0.19180    0.14710    1.000
    C189     C        0.19090    0.28500    0.27680    1.000
    C190     C        0.19430    0.28390    0.33670    1.000
    C191     C        0.80730    0.21770    0.12480    1.000
    C192     C        0.80950    0.21680    0.18510    1.000
    Co1      Co       0.25000    0.25000    0.46161    1.000
    N33      N        0.25000    0.25000    0.55420    1.000
    N34      N        0.25000    0.25000    0.86840    1.000
    C193     C        0.25000    0.25000    0.68050    1.000
    C194     C        0.25000    0.25000    0.74460    1.000
    Co2      Co       0.75000    0.75000    0.03839    1.000
    N35      N        0.75000    0.75000    0.94580    1.000
    N36      N        0.75000    0.75000    0.63160    1.000
    C195     C        0.75000    0.75000    0.81950    1.000
    C196     C        0.75000    0.75000    0.75540    1.000
    Co3      Co       0.75000    0.75000    0.53839    1.000
    N37      N        0.75000    0.75000    0.44580    1.000
    N38      N        0.75000    0.75000    0.13160    1.000
    C197     C        0.75000    0.75000    0.31950    1.000
    C198     C        0.75000    0.75000    0.25540    1.000
    Co4      Co       0.25000    0.25000    0.96161    1.000
    N39      N        0.25000    0.25000    0.05420    1.000
    N40      N        0.25000    0.25000    0.36840    1.000
    C199     C        0.25000    0.25000    0.18050    1.000
    C200     C        0.25000    0.25000    0.24460    1.000
    Co5      Co       0.25000    0.75000    0.50000    1.000
    Co6      Co       0.75000    0.25000    0.50000    1.000
    Co7      Co       0.75000    0.25000    0.00000    1.000
    Co8      Co       0.25000    0.75000    0.00000    1.000
    N41      N        0.25000    0.75000    0.59290    1.000
    C201     C        0.25000    0.75000    0.71730    1.000
    N42      N        0.75000    0.25000    0.59290    1.000
    C202     C        0.75000    0.25000    0.71730    1.000
    N43      N        0.75000    0.25000    0.90710    1.000
    C203     C        0.75000    0.25000    0.78270    1.000
    N44      N        0.25000    0.75000    0.90710    1.000
    C204     C        0.25000    0.75000    0.78270    1.000
    N45      N        0.75000    0.25000    0.40710    1.000
    C205     C        0.75000    0.25000    0.28270    1.000
    N46      N        0.25000    0.75000    0.40710    1.000
    C206     C        0.25000    0.75000    0.28270    1.000
    N47      N        0.25000    0.75000    0.09290    1.000
    C207     C        0.25000    0.75000    0.21730    1.000
    N48      N        0.75000    0.25000    0.09290    1.000
    C208     C        0.75000    0.25000    0.21730    1.000
