# CIF file generated by openbabel 3.1.0, see https://openbabel.org
data_I
_chemical_name_common 'image0'
_cell_length_a 14.2686
_cell_length_b 16.7326
_cell_length_c 7.0181
_cell_angle_alpha 90
_cell_angle_beta 90
_cell_angle_gamma 90
_space_group_name_H-M_alt 'P 1'
_space_group_name_Hall 'P 1'
loop_
    _symmetry_equiv_pos_as_xyz
    x,y,z
loop_
    _atom_site_label
    _atom_site_type_symbol
    _atom_site_fract_x
    _atom_site_fract_y
    _atom_site_fract_z
    _atom_site_occupancy
    Sr1      Sr       0.42725    0.53210    0.96686    1.000
    F1       F        0.48053    0.74490    0.61690    1.000
    F2       F        0.37575    0.87751    0.61210    1.000
    F3       F        0.12703    0.73259    0.33230    1.000
    F4       F        0.23331    0.60104    0.32840    1.000
    O1       O        0.44000    0.56530    0.31190    1.000
    O2       O        0.44830    0.56820    0.62570    1.000
    O3       O        0.17190    0.91650    0.63150    1.000
    O4       O        0.16050    0.90913    0.31640    1.000
    O5       O        0.21180    0.71400    0.90860    1.000
    O6       O        0.24990    0.58832    0.87650    1.000
    O7       O        0.35210    0.67343    0.97480    1.000
    N1       N        0.26860    0.65910    0.91840    1.000
    C1       C        0.42000    0.59430    0.46900    1.000
    C2       C        0.35980    0.66910    0.47220    1.000
    C3       C        0.39250    0.74040    0.54600    1.000
    C4       C        0.33830    0.80890    0.54580    1.000
    C5       C        0.24740    0.80890    0.47570    1.000
    C6       C        0.18770    0.88420    0.47560    1.000
    C7       C        0.21440    0.73700    0.40130    1.000
    C8       C        0.26960    0.66870    0.40060    1.000
    Sr2      Sr       0.57275    0.46790    0.46686    1.000
    F5       F        0.51947    0.25510    0.11690    1.000
    F6       F        0.62425    0.12249    0.11210    1.000
    F7       F        0.87297    0.26741    0.83230    1.000
    F8       F        0.76669    0.39896    0.82840    1.000
    O8       O        0.56000    0.43470    0.81190    1.000
    O9       O        0.55170    0.43180    0.12570    1.000
    O10      O        0.82810    0.08350    0.13150    1.000
    O11      O        0.83950    0.09087    0.81640    1.000
    O12      O        0.78820    0.28600    0.40860    1.000
    O13      O        0.75010    0.41168    0.37650    1.000
    O14      O        0.64790    0.32657    0.47480    1.000
    N2       N        0.73140    0.34090    0.41840    1.000
    C9       C        0.58000    0.40570    0.96900    1.000
    C10      C        0.64020    0.33090    0.97220    1.000
    C11      C        0.60750    0.25960    0.04600    1.000
    C12      C        0.66170    0.19110    0.04580    1.000
    C13      C        0.75260    0.19110    0.97570    1.000
    C14      C        0.81230    0.11580    0.97560    1.000
    C15      C        0.78560    0.26300    0.90130    1.000
    C16      C        0.73040    0.33130    0.90060    1.000
    Sr3      Sr       0.92725    0.96790    0.96686    1.000
    F9       F        0.98053    0.75510    0.61690    1.000
    F10      F        0.87575    0.62249    0.61210    1.000
    F11      F        0.62703    0.76741    0.33230    1.000
    F12      F        0.73331    0.89896    0.32840    1.000
    O15      O        0.94000    0.93470    0.31190    1.000
    O16      O        0.94830    0.93180    0.62570    1.000
    O17      O        0.67190    0.58350    0.63150    1.000
    O18      O        0.66050    0.59087    0.31640    1.000
    O19      O        0.71180    0.78600    0.90860    1.000
    O20      O        0.74990    0.91168    0.87650    1.000
    O21      O        0.85210    0.82657    0.97480    1.000
    N3       N        0.76860    0.84090    0.91840    1.000
    C17      C        0.92000    0.90570    0.46900    1.000
    C18      C        0.85980    0.83090    0.47220    1.000
    C19      C        0.89250    0.75960    0.54600    1.000
    C20      C        0.83830    0.69110    0.54580    1.000
    C21      C        0.74740    0.69110    0.47570    1.000
    C22      C        0.68770    0.61580    0.47560    1.000
    C23      C        0.71440    0.76300    0.40130    1.000
    C24      C        0.76960    0.83130    0.40060    1.000
    Sr4      Sr       0.07275    0.03210    0.46686    1.000
    F13      F        0.01947    0.24490    0.11690    1.000
    F14      F        0.12425    0.37751    0.11210    1.000
    F15      F        0.37297    0.23259    0.83230    1.000
    F16      F        0.26669    0.10104    0.82840    1.000
    O22      O        0.06000    0.06530    0.81190    1.000
    O23      O        0.05170    0.06820    0.12570    1.000
    O24      O        0.32810    0.41650    0.13150    1.000
    O25      O        0.33950    0.40913    0.81640    1.000
    O26      O        0.28820    0.21400    0.40860    1.000
    O27      O        0.25010    0.08832    0.37650    1.000
    O28      O        0.14790    0.17343    0.47480    1.000
    N4       N        0.23140    0.15910    0.41840    1.000
    C25      C        0.08000    0.09430    0.96900    1.000
    C26      C        0.14020    0.16910    0.97220    1.000
    C27      C        0.10750    0.24040    0.04600    1.000
    C28      C        0.16170    0.30890    0.04580    1.000
    C29      C        0.25260    0.30890    0.97570    1.000
    C30      C        0.31230    0.38420    0.97560    1.000
    C31      C        0.28560    0.23700    0.90130    1.000
    C32      C        0.23040    0.16870    0.90060    1.000
