# CIF file generated by openbabel 3.1.0, see https://openbabel.org
data_I
_chemical_name_common 'image0'
_cell_length_a 9.869
_cell_length_b 17.101
_cell_length_c 17.32
_cell_angle_alpha 90
_cell_angle_beta 94.896
_cell_angle_gamma 90
_space_group_name_H-M_alt 'P 1'
_space_group_name_Hall 'P 1'
loop_
    _symmetry_equiv_pos_as_xyz
    x,y,z
loop_
    _atom_site_label
    _atom_site_type_symbol
    _atom_site_fract_x
    _atom_site_fract_y
    _atom_site_fract_z
    _atom_site_occupancy
    Zn1      Zn       0.06281    0.96598    0.09974    1.000
    Zn2      Zn       0.55016    0.10733    0.96320    1.000
    P1       P        0.35393    0.06128    0.08767    1.000
    P2       P        0.85354    0.10272    0.05420    1.000
    O1       O        0.20490    0.04180    0.08580    1.000
    O2       O        0.38370    0.11110    0.01750    1.000
    O3       O        0.44770    0.99070    0.09680    1.000
    O4       O        0.51420    0.32650    0.37270    1.000
    O5       O        0.48220    0.22420    0.44530    1.000
    O6       O        0.89780    0.02860    0.09780    1.000
    O7       O        0.93000    0.11370    0.98170    1.000
    O8       O        0.70140    0.10690    0.03950    1.000
    O9       O        0.90060    0.41120    0.30070    1.000
    O10      O        0.10270    0.35710    0.33010    1.000
    C1       C        0.39170    0.12010    0.17350    1.000
    C2       C        0.35690    0.09280    0.24450    1.000
    H1       H        0.31310    0.04490    0.24770    1.000
    C3       C        0.38800    0.13750    0.31100    1.000
    H2       H        0.36580    0.11830    0.35860    1.000
    C4       C        0.44990    0.20850    0.30820    1.000
    C5       C        0.48250    0.23720    0.23790    1.000
    H3       H        0.52380    0.28590    0.23510    1.000
    C6       C        0.45340    0.19280    0.17060    1.000
    H4       H        0.47590    0.21230    0.12330    1.000
    C7       C        0.48440    0.25460    0.38160    1.000
    C8       C        0.89880    0.18340    0.11810    1.000
    C9       C        0.02420    0.18620    0.16090    1.000
    H5       H        0.08810    0.14750    0.15370    1.000
    C10      C        0.05620    0.24530    0.21400    1.000
    H6       H        0.14140    0.24610    0.24150    1.000
    C11      C        0.96300    0.30250    0.22630    1.000
    C12      C        0.83790    0.30240    0.18270    1.000
    H7       H        0.77530    0.34190    0.18950    1.000
    C13      C        0.80640    0.24350    0.12920    1.000
    H8       H        0.72250    0.24400    0.10030    1.000
    C14      C        0.99280    0.36060    0.28970    1.000
    Zn3      Zn       0.93719    0.46598    0.40026    1.000
    Zn4      Zn       0.44984    0.60733    0.53680    1.000
    P3       P        0.64607    0.56128    0.41233    1.000
    P4       P        0.14646    0.60272    0.44580    1.000
    O11      O        0.79510    0.54180    0.41420    1.000
    O12      O        0.61630    0.61110    0.48250    1.000
    O13      O        0.55230    0.49070    0.40320    1.000
    O14      O        0.48580    0.82650    0.12730    1.000
    O15      O        0.51780    0.72420    0.05470    1.000
    O16      O        0.10220    0.52860    0.40220    1.000
    O17      O        0.07000    0.61370    0.51830    1.000
    O18      O        0.29860    0.60690    0.46050    1.000
    O19      O        0.09940    0.91120    0.19930    1.000
    O20      O        0.89730    0.85710    0.16990    1.000
    C15      C        0.60830    0.62010    0.32650    1.000
    C16      C        0.64310    0.59280    0.25550    1.000
    H9       H        0.68690    0.54490    0.25230    1.000
    C17      C        0.61200    0.63750    0.18900    1.000
    H10      H        0.63420    0.61830    0.14140    1.000
    C18      C        0.55010    0.70850    0.19180    1.000
    C19      C        0.51750    0.73720    0.26210    1.000
    H11      H        0.47620    0.78590    0.26490    1.000
    C20      C        0.54660    0.69280    0.32940    1.000
    H12      H        0.52410    0.71230    0.37670    1.000
    C21      C        0.51560    0.75460    0.11840    1.000
    C22      C        0.10120    0.68340    0.38190    1.000
    C23      C        0.97580    0.68620    0.33910    1.000
    H13      H        0.91190    0.64750    0.34630    1.000
    C24      C        0.94380    0.74530    0.28600    1.000
    H14      H        0.85860    0.74610    0.25850    1.000
    C25      C        0.03700    0.80250    0.27370    1.000
    C26      C        0.16210    0.80240    0.31730    1.000
    H15      H        0.22470    0.84190    0.31050    1.000
    C27      C        0.19360    0.74350    0.37080    1.000
    H16      H        0.27750    0.74400    0.39970    1.000
    C28      C        0.00720    0.86060    0.21030    1.000
    Zn5      Zn       0.93719    0.03402    0.90026    1.000
    Zn6      Zn       0.44984    0.89267    0.03680    1.000
    P5       P        0.64607    0.93872    0.91233    1.000
    P6       P        0.14646    0.89728    0.94580    1.000
    O21      O        0.79510    0.95820    0.91420    1.000
    O22      O        0.61630    0.88890    0.98250    1.000
    O23      O        0.55230    0.00930    0.90320    1.000
    O24      O        0.48580    0.67350    0.62730    1.000
    O25      O        0.51780    0.77580    0.55470    1.000
    O26      O        0.10220    0.97140    0.90220    1.000
    O27      O        0.07000    0.88630    0.01830    1.000
    O28      O        0.29860    0.89310    0.96050    1.000
    O29      O        0.09940    0.58880    0.69930    1.000
    O30      O        0.89730    0.64290    0.66990    1.000
    C29      C        0.60830    0.87990    0.82650    1.000
    C30      C        0.64310    0.90720    0.75550    1.000
    H17      H        0.68690    0.95510    0.75230    1.000
    C31      C        0.61200    0.86250    0.68900    1.000
    H18      H        0.63420    0.88170    0.64140    1.000
    C32      C        0.55010    0.79150    0.69180    1.000
    C33      C        0.51750    0.76280    0.76210    1.000
    H19      H        0.47620    0.71410    0.76490    1.000
    C34      C        0.54660    0.80720    0.82940    1.000
    H20      H        0.52410    0.78770    0.87670    1.000
    C35      C        0.51560    0.74540    0.61840    1.000
    C36      C        0.10120    0.81660    0.88190    1.000
    C37      C        0.97580    0.81380    0.83910    1.000
    H21      H        0.91190    0.85250    0.84630    1.000
    C38      C        0.94380    0.75470    0.78600    1.000
    H22      H        0.85860    0.75390    0.75850    1.000
    C39      C        0.03700    0.69750    0.77370    1.000
    C40      C        0.16210    0.69760    0.81730    1.000
    H23      H        0.22470    0.65810    0.81050    1.000
    C41      C        0.19360    0.75650    0.87080    1.000
    H24      H        0.27750    0.75600    0.89970    1.000
    C42      C        0.00720    0.63940    0.71030    1.000
    Zn7      Zn       0.06281    0.53402    0.59974    1.000
    Zn8      Zn       0.55016    0.39267    0.46320    1.000
    P7       P        0.35393    0.43872    0.58767    1.000
    P8       P        0.85354    0.39728    0.55420    1.000
    O31      O        0.20490    0.45820    0.58580    1.000
    O32      O        0.38370    0.38890    0.51750    1.000
    O33      O        0.44770    0.50930    0.59680    1.000
    O34      O        0.51420    0.17350    0.87270    1.000
    O35      O        0.48220    0.27580    0.94530    1.000
    O36      O        0.89780    0.47140    0.59780    1.000
    O37      O        0.93000    0.38630    0.48170    1.000
    O38      O        0.70140    0.39310    0.53950    1.000
    O39      O        0.90060    0.08880    0.80070    1.000
    O40      O        0.10270    0.14290    0.83010    1.000
    C43      C        0.39170    0.37990    0.67350    1.000
    C44      C        0.35690    0.40720    0.74450    1.000
    H25      H        0.31310    0.45510    0.74770    1.000
    C45      C        0.38800    0.36250    0.81100    1.000
    H26      H        0.36580    0.38170    0.85860    1.000
    C46      C        0.44990    0.29150    0.80820    1.000
    C47      C        0.48250    0.26280    0.73790    1.000
    H27      H        0.52380    0.21410    0.73510    1.000
    C48      C        0.45340    0.30720    0.67060    1.000
    H28      H        0.47590    0.28770    0.62330    1.000
    C49      C        0.48440    0.24540    0.88160    1.000
    C50      C        0.89880    0.31660    0.61810    1.000
    C51      C        0.02420    0.31380    0.66090    1.000
    H29      H        0.08810    0.35250    0.65370    1.000
    C52      C        0.05620    0.25470    0.71400    1.000
    H30      H        0.14140    0.25390    0.74150    1.000
    C53      C        0.96300    0.19750    0.72630    1.000
    C54      C        0.83790    0.19760    0.68270    1.000
    H31      H        0.77530    0.15810    0.68950    1.000
    C55      C        0.80640    0.25650    0.62920    1.000
    H32      H        0.72250    0.25600    0.60030    1.000
    C56      C        0.99280    0.13940    0.78970    1.000
