# CIF file generated by openbabel 3.1.0, see https://openbabel.org
data_I
_chemical_name_common 'image0'
_cell_length_a 8.6326
_cell_length_b 28.1206
_cell_length_c 15.3462
_cell_angle_alpha 90
_cell_angle_beta 90
_cell_angle_gamma 90
_space_group_name_H-M_alt 'P 1'
_space_group_name_Hall 'P 1'
loop_
    _symmetry_equiv_pos_as_xyz
    x,y,z
loop_
    _atom_site_label
    _atom_site_type_symbol
    _atom_site_fract_x
    _atom_site_fract_y
    _atom_site_fract_z
    _atom_site_occupancy
    Dy1      Dy       0.94761    0.58672    0.20205    1.000
    O1       O        0.20670    0.62836    0.30450    1.000
    O2       O        0.04900    0.66320    0.21050    1.000
    O3       O        0.04410    0.52270    0.28280    1.000
    O4       O        0.20510    0.46592    0.46740    1.000
    O5       O        0.12640    0.39700    0.65510    1.000
    C1       C        0.14720    0.51050    0.33530    1.000
    C2       C        0.19460    0.71120    0.30380    1.000
    C3       C        0.14880    0.66460    0.27010    1.000
    O6       O        0.33840    0.43740    0.61950    1.000
    O7       O        0.28460    0.52669    0.33810    1.000
    C4       C        0.13080    0.43380    0.52220    1.000
    C5       C        0.97190    0.45010    0.41240    1.000
    H1       H        0.88610    0.45010    0.37580    1.000
    C6       C        0.10130    0.47450    0.40110    1.000
    C7       C        0.28940    0.72460    0.36850    1.000
    H2       H        0.34420    0.70480    0.40600    1.000
    C8       C        0.20360    0.42180    0.60530    1.000
    C9       C        0.98840    0.42430    0.48910    1.000
    H3       H        0.91480    0.40420    0.51340    1.000
    Dy2      Dy       0.55239    0.41328    0.70205    1.000
    O8       O        0.29330    0.37164    0.80450    1.000
    O9       O        0.45100    0.33680    0.71050    1.000
    O10      O        0.45590    0.47730    0.78280    1.000
    O11      O        0.29490    0.53408    0.96740    1.000
    O12      O        0.37360    0.60300    0.15510    1.000
    C10      C        0.35280    0.48950    0.83530    1.000
    C11      C        0.30540    0.28880    0.80380    1.000
    C12      C        0.35120    0.33540    0.77010    1.000
    O13      O        0.16160    0.56260    0.11950    1.000
    O14      O        0.21540    0.47331    0.83810    1.000
    C13      C        0.36920    0.56620    0.02220    1.000
    C14      C        0.52810    0.54990    0.91240    1.000
    H4       H        0.61390    0.54990    0.87580    1.000
    C15      C        0.39870    0.52550    0.90110    1.000
    C16      C        0.21060    0.27540    0.86850    1.000
    H5       H        0.15580    0.29520    0.90600    1.000
    C17      C        0.29640    0.57820    0.10530    1.000
    C18      C        0.51160    0.57570    0.98910    1.000
    H6       H        0.58520    0.59580    0.01340    1.000
    Dy3      Dy       0.05239    0.08672    0.79795    1.000
    O15      O        0.79330    0.12836    0.69550    1.000
    O16      O        0.95100    0.16320    0.78950    1.000
    O17      O        0.95590    0.02270    0.71720    1.000
    O18      O        0.79490    0.96592    0.53260    1.000
    O19      O        0.87360    0.89700    0.34490    1.000
    C19      C        0.85280    0.01050    0.66470    1.000
    C20      C        0.80540    0.21120    0.69620    1.000
    C21      C        0.85120    0.16460    0.72990    1.000
    O20      O        0.66160    0.93740    0.38050    1.000
    O21      O        0.71540    0.02669    0.66190    1.000
    C22      C        0.86920    0.93380    0.47780    1.000
    C23      C        0.02810    0.95010    0.58760    1.000
    H7       H        0.11390    0.95010    0.62420    1.000
    C24      C        0.89870    0.97450    0.59890    1.000
    C25      C        0.71060    0.22460    0.63150    1.000
    H8       H        0.65580    0.20480    0.59400    1.000
    C26      C        0.79640    0.92180    0.39470    1.000
    C27      C        0.01160    0.92430    0.51090    1.000
    H9       H        0.08520    0.90420    0.48660    1.000
    Dy4      Dy       0.44761    0.91328    0.29795    1.000
    O22      O        0.70670    0.87164    0.19550    1.000
    O23      O        0.54900    0.83680    0.28950    1.000
    O24      O        0.54410    0.97730    0.21720    1.000
    O25      O        0.70510    0.03408    0.03260    1.000
    O26      O        0.62640    0.10300    0.84490    1.000
    C28      C        0.64720    0.98950    0.16470    1.000
    C29      C        0.69460    0.78880    0.19620    1.000
    C30      C        0.64880    0.83540    0.22990    1.000
    O27      O        0.83840    0.06260    0.88050    1.000
    O28      O        0.78460    0.97331    0.16190    1.000
    C31      C        0.63080    0.06620    0.97780    1.000
    C32      C        0.47190    0.04990    0.08760    1.000
    H10      H        0.38610    0.04990    0.12420    1.000
    C33      C        0.60130    0.02550    0.09890    1.000
    C34      C        0.78940    0.77540    0.13150    1.000
    H11      H        0.84420    0.79520    0.09400    1.000
    C35      C        0.70360    0.07820    0.89470    1.000
    C36      C        0.48840    0.07570    0.01090    1.000
    H12      H        0.41480    0.09580    0.98660    1.000
    Dy5      Dy       0.05239    0.41328    0.79795    1.000
    O29      O        0.79330    0.37164    0.69550    1.000
    O30      O        0.95100    0.33680    0.78950    1.000
    O31      O        0.95590    0.47730    0.71720    1.000
    O32      O        0.79490    0.53408    0.53260    1.000
    O33      O        0.87360    0.60300    0.34490    1.000
    C37      C        0.85280    0.48950    0.66470    1.000
    C38      C        0.80540    0.28880    0.69620    1.000
    C39      C        0.85120    0.33540    0.72990    1.000
    O34      O        0.66160    0.56260    0.38050    1.000
    O35      O        0.71540    0.47331    0.66190    1.000
    C40      C        0.86920    0.56620    0.47780    1.000
    C41      C        0.02810    0.54990    0.58760    1.000
    H13      H        0.11390    0.54990    0.62420    1.000
    C42      C        0.89870    0.52550    0.59890    1.000
    C43      C        0.71060    0.27540    0.63150    1.000
    H14      H        0.65580    0.29520    0.59400    1.000
    C44      C        0.79640    0.57820    0.39470    1.000
    C45      C        0.01160    0.57570    0.51090    1.000
    H15      H        0.08520    0.59580    0.48660    1.000
    Dy6      Dy       0.44761    0.58672    0.29795    1.000
    O36      O        0.70670    0.62836    0.19550    1.000
    O37      O        0.54900    0.66320    0.28950    1.000
    O38      O        0.54410    0.52270    0.21720    1.000
    O39      O        0.70510    0.46592    0.03260    1.000
    O40      O        0.62640    0.39700    0.84490    1.000
    C46      C        0.64720    0.51050    0.16470    1.000
    C47      C        0.69460    0.71120    0.19620    1.000
    C48      C        0.64880    0.66460    0.22990    1.000
    O41      O        0.83840    0.43740    0.88050    1.000
    O42      O        0.78460    0.52669    0.16190    1.000
    C49      C        0.63080    0.43380    0.97780    1.000
    C50      C        0.47190    0.45010    0.08760    1.000
    H16      H        0.38610    0.45010    0.12420    1.000
    C51      C        0.60130    0.47450    0.09890    1.000
    C52      C        0.78940    0.72460    0.13150    1.000
    H17      H        0.84420    0.70480    0.09400    1.000
    C53      C        0.70360    0.42180    0.89470    1.000
    C54      C        0.48840    0.42430    0.01090    1.000
    H18      H        0.41480    0.40420    0.98660    1.000
    Dy7      Dy       0.94761    0.91328    0.20205    1.000
    O43      O        0.20670    0.87164    0.30450    1.000
    O44      O        0.04900    0.83680    0.21050    1.000
    O45      O        0.04410    0.97730    0.28280    1.000
    O46      O        0.20510    0.03408    0.46740    1.000
    O47      O        0.12640    0.10300    0.65510    1.000
    C55      C        0.14720    0.98950    0.33530    1.000
    C56      C        0.19460    0.78880    0.30380    1.000
    C57      C        0.14880    0.83540    0.27010    1.000
    O48      O        0.33840    0.06260    0.61950    1.000
    O49      O        0.28460    0.97331    0.33810    1.000
    C58      C        0.13080    0.06620    0.52220    1.000
    C59      C        0.97190    0.04990    0.41240    1.000
    H19      H        0.88610    0.04990    0.37580    1.000
    C60      C        0.10130    0.02550    0.40110    1.000
    C61      C        0.28940    0.77540    0.36850    1.000
    H20      H        0.34420    0.79520    0.40600    1.000
    C62      C        0.20360    0.07820    0.60530    1.000
    C63      C        0.98840    0.07570    0.48910    1.000
    H21      H        0.91480    0.09580    0.51340    1.000
    Dy8      Dy       0.55239    0.08672    0.70205    1.000
    O50      O        0.29330    0.12836    0.80450    1.000
    O51      O        0.45100    0.16320    0.71050    1.000
    O52      O        0.45590    0.02270    0.78280    1.000
    O53      O        0.29490    0.96592    0.96740    1.000
    O54      O        0.37360    0.89700    0.15510    1.000
    C64      C        0.35280    0.01050    0.83530    1.000
    C65      C        0.30540    0.21120    0.80380    1.000
    C66      C        0.35120    0.16460    0.77010    1.000
    O55      O        0.16160    0.93740    0.11950    1.000
    O56      O        0.21540    0.02669    0.83810    1.000
    C67      C        0.36920    0.93380    0.02220    1.000
    C68      C        0.52810    0.95010    0.91240    1.000
    H22      H        0.61390    0.95010    0.87580    1.000
    C69      C        0.39870    0.97450    0.90110    1.000
    C70      C        0.21060    0.22460    0.86850    1.000
    H23      H        0.15580    0.20480    0.90600    1.000
    C71      C        0.29640    0.92180    0.10530    1.000
    C72      C        0.51160    0.92430    0.98910    1.000
    H24      H        0.58520    0.90420    0.01340    1.000
    O57      O        0.13480    0.75000    0.26250    1.000
    O58      O        0.36520    0.25000    0.76250    1.000
    O59      O        0.86520    0.25000    0.73750    1.000
    O60      O        0.63480    0.75000    0.23750    1.000
