# CIF file generated by openbabel 3.1.0, see https://openbabel.org
data_I
_chemical_name_common 'image0'
_cell_length_a 10.188
_cell_length_b 10.8386
_cell_length_c 13.8721
_cell_angle_alpha 78.673
_cell_angle_beta 79.281
_cell_angle_gamma 86.126
_space_group_name_H-M_alt 'P 1'
_space_group_name_Hall 'P 1'
loop_
    _symmetry_equiv_pos_as_xyz
    x,y,z
loop_
    _atom_site_label
    _atom_site_type_symbol
    _atom_site_fract_x
    _atom_site_fract_y
    _atom_site_fract_z
    _atom_site_occupancy
    C1       C        0.59520    0.90070    0.21430    1.000
    C2       C        0.73660    0.88590    0.16740    1.000
    C3       C        0.84400    0.89540    0.21430    1.000
    H1       H        0.82710    0.91210    0.27880    1.000
    C4       C        0.97300    0.88100    0.16860    1.000
    C5       C        0.00040    0.85480    0.07170    1.000
    H2       H        0.08820    0.84810    0.03900    1.000
    C6       C        0.89390    0.83890    0.02490    1.000
    C7       C        0.76410    0.85800    0.07090    1.000
    H3       H        0.69400    0.85240    0.03760    1.000
    C8       C        0.09210    0.89290    0.21620    1.000
    C9       C        0.00420    0.70450    0.91150    1.000
    C10      C        0.00840    0.66600    0.81320    1.000
    C11      C        0.01520    0.74770    0.72250    1.000
    H4       H        0.01360    0.83430    0.71900    1.000
    C12      C        0.02440    0.69750    0.63670    1.000
    H5       H        0.03220    0.75230    0.57550    1.000
    C13      C        0.01550    0.49680    0.72560    1.000
    H6       H        0.01320    0.41080    0.72720    1.000
    C14      C        0.01120    0.53780    0.81600    1.000
    H7       H        0.01030    0.48070    0.87570    1.000
    C15      C        0.27250    0.60550    0.35270    1.000
    C16      C        0.30030    0.52730    0.27310    1.000
    C17      C        0.32310    0.58350    0.17240    1.000
    H8       H        0.32910    0.67050    0.15440    1.000
    C18      C        0.33700    0.51130    0.09820    1.000
    C19      C        0.33560    0.38060    0.12660    1.000
    H9       H        0.34680    0.33050    0.07830    1.000
    C20      C        0.31770    0.32540    0.22690    1.000
    C21      C        0.29890    0.39820    0.29960    1.000
    H10      H        0.28520    0.36010    0.36670    1.000
    C22      C        0.31260    0.18900    0.25210    1.000
    C23      C        0.33390    0.51850    0.92100    1.000
    C24      C        0.34840    0.60210    0.81930    1.000
    C25      C        0.34810    0.73170    0.80040    1.000
    H11      H        0.34340    0.77570    0.85220    1.000
    C26      C        0.35500    0.79550    0.70260    1.000
    H12      H        0.35710    0.88290    0.69030    1.000
    C27      C        0.35930    0.61470    0.64270    1.000
    H13      H        0.36280    0.57430    0.58900    1.000
    C28      C        0.35490    0.54260    0.73660    1.000
    H14      H        0.35620    0.45530    0.74550    1.000
    N1       N        0.91800    0.80150    0.93080    1.000
    H15      H        0.87690    0.84130    0.88460    1.000
    N2       N        0.02270    0.57410    0.63800    1.000
    N3       N        0.35450    0.57050    0.99700    1.000
    H16      H        0.38070    0.64670    0.98260    1.000
    N4       N        0.35870    0.73880    0.62570    1.000
    O1       O        0.56250    0.90090    0.30760    1.000
    O2       O        0.50570    0.91450    0.16170    1.000
    O3       O        0.07160    0.90530    0.30830    1.000
    O4       O        0.20580    0.88820    0.16600    1.000
    O5       O        0.07640    0.65280    0.96850    1.000
    O6       O        0.32130    0.71190    0.33350    1.000
    O7       O        0.19960    0.56230    0.43350    1.000
    O8       O        0.32550    0.13070    0.33910    1.000
    O9       O        0.29590    0.12630    0.18920    1.000
    O10      O        0.30490    0.41140    0.92880    1.000
    Sm1      Sm       0.31986    0.92336    0.29666    1.000
    C29      C        0.40480    0.09930    0.78570    1.000
    C30      C        0.26340    0.11410    0.83260    1.000
    C31      C        0.15600    0.10460    0.78570    1.000
    H17      H        0.17290    0.08790    0.72120    1.000
    C32      C        0.02700    0.11900    0.83140    1.000
    C33      C        0.99960    0.14520    0.92830    1.000
    H18      H        0.91180    0.15190    0.96100    1.000
    C34      C        0.10610    0.16110    0.97510    1.000
    C35      C        0.23590    0.14200    0.92910    1.000
    H19      H        0.30600    0.14760    0.96240    1.000
    C36      C        0.90790    0.10710    0.78380    1.000
    C37      C        0.99580    0.29550    0.08850    1.000
    C38      C        0.99160    0.33400    0.18680    1.000
    C39      C        0.98480    0.25230    0.27750    1.000
    H20      H        0.98640    0.16570    0.28100    1.000
    C40      C        0.97560    0.30250    0.36330    1.000
    H21      H        0.96780    0.24770    0.42450    1.000
    C41      C        0.98450    0.50320    0.27440    1.000
    H22      H        0.98680    0.58920    0.27280    1.000
    C42      C        0.98880    0.46220    0.18400    1.000
    H23      H        0.98970    0.51930    0.12430    1.000
    C43      C        0.72750    0.39450    0.64730    1.000
    C44      C        0.69970    0.47270    0.72690    1.000
    C45      C        0.67690    0.41650    0.82760    1.000
    H24      H        0.67090    0.32950    0.84560    1.000
    C46      C        0.66300    0.48870    0.90180    1.000
    C47      C        0.66440    0.61940    0.87340    1.000
    H25      H        0.65320    0.66950    0.92170    1.000
    C48      C        0.68230    0.67460    0.77310    1.000
    C49      C        0.70110    0.60180    0.70040    1.000
    H26      H        0.71480    0.63990    0.63330    1.000
    C50      C        0.68740    0.81100    0.74790    1.000
    C51      C        0.66610    0.48150    0.07900    1.000
    C52      C        0.65160    0.39790    0.18070    1.000
    C53      C        0.65190    0.26830    0.19960    1.000
    H27      H        0.65660    0.22430    0.14780    1.000
    C54      C        0.64500    0.20450    0.29740    1.000
    H28      H        0.64290    0.11710    0.30970    1.000
    C55      C        0.64070    0.38530    0.35730    1.000
    H29      H        0.63720    0.42570    0.41100    1.000
    C56      C        0.64510    0.45740    0.26340    1.000
    H30      H        0.64380    0.54470    0.25450    1.000
    N5       N        0.08200    0.19850    0.06920    1.000
    H31      H        0.12310    0.15870    0.11540    1.000
    N6       N        0.97730    0.42590    0.36200    1.000
    N7       N        0.64550    0.42950    0.00300    1.000
    H32      H        0.61930    0.35330    0.01740    1.000
    N8       N        0.64130    0.26120    0.37430    1.000
    O11      O        0.43750    0.09910    0.69240    1.000
    O12      O        0.49430    0.08550    0.83830    1.000
    O13      O        0.92840    0.09470    0.69170    1.000
    O14      O        0.79420    0.11180    0.83400    1.000
    O15      O        0.92360    0.34720    0.03150    1.000
    O16      O        0.67870    0.28810    0.66650    1.000
    O17      O        0.80040    0.43770    0.56650    1.000
    O18      O        0.67450    0.86930    0.66090    1.000
    O19      O        0.70410    0.87370    0.81080    1.000
    O20      O        0.69510    0.58860    0.07120    1.000
    Sm2      Sm       0.68014    0.07664    0.70334    1.000
    Mn1      Mn       0.00000    0.50000    0.50000    1.000
