# CIF file generated by openbabel 3.1.0, see https://openbabel.org
data_I
_chemical_name_common 'FAZRAA_charged'
_cell_length_a 8.415
_cell_length_b 12.503
_cell_length_c 12.682
_cell_angle_alpha 62.908
_cell_angle_beta 87.261
_cell_angle_gamma 71.416
_space_group_name_H-M_alt 'P 1'
_space_group_name_Hall 'P 1'
loop_
    _symmetry_equiv_pos_as_xyz
    x,y,z
loop_
    _atom_site_label
    _atom_site_type_symbol
    _atom_site_fract_x
    _atom_site_fract_y
    _atom_site_fract_z
    _atom_site_occupancy
    Ag1      Ag       0.75664    0.48594    0.48561    1.000
    Ag2      Ag       0.24336    0.51406    0.51439    1.000
    H1       H        0.49450    0.81300    0.44680    1.000
    H2       H        0.47290    0.77160    0.58190    1.000
    H3       H        0.50820    0.67170    0.53390    1.000
    H4       H        0.02130    0.86660    0.68940    1.000
    H5       H        0.20990    0.86110    0.68110    1.000
    H6       H        0.15280    0.95100    0.46810    1.000
    H7       H        0.78310    0.70650    0.22400    1.000
    H8       H        0.69370    0.75180    0.09800    1.000
    H9       H        0.76470    0.60610    0.18810    1.000
    H10      H        0.87260    0.02060    0.17570    1.000
    H11      H        0.06140    0.01260    0.16090    1.000
    H12      H        0.89190    0.93150    0.03920    1.000
    H13      H        0.50550    0.18700    0.55320    1.000
    H14      H        0.52710    0.22840    0.41810    1.000
    H15      H        0.49180    0.32830    0.46610    1.000
    H16      H        0.97870    0.13340    0.31060    1.000
    H17      H        0.79010    0.13890    0.31890    1.000
    H18      H        0.84720    0.04900    0.53190    1.000
    H19      H        0.21690    0.29350    0.77600    1.000
    H20      H        0.30630    0.24820    0.90200    1.000
    H21      H        0.23530    0.39390    0.81190    1.000
    H22      H        0.12740    0.97940    0.82430    1.000
    H23      H        0.93860    0.98740    0.83910    1.000
    H24      H        0.10810    0.06850    0.96080    1.000
    C1       C        0.53160    0.74490    0.52660    1.000
    C2       C        0.71520    0.71190    0.55310    1.000
    C3       C        0.99130    0.69270    0.60850    1.000
    C4       C        0.11720    0.85340    0.64570    1.000
    C5       C        0.07270    0.95360    0.52080    1.000
    C6       C        0.71170    0.68990    0.18060    1.000
    C7       C        0.54500    0.69810    0.23040    1.000
    C8       C        0.26170    0.75300    0.27310    1.000
    C9       C        0.98020    0.97140    0.16330    1.000
    C10      C        0.96200    0.97250    0.04690    1.000
    C11      C        0.46840    0.25510    0.47340    1.000
    C12      C        0.28480    0.28810    0.44690    1.000
    C13      C        0.00870    0.30730    0.39150    1.000
    C14      C        0.88280    0.14660    0.35430    1.000
    C15      C        0.92730    0.04640    0.47920    1.000
    C16      C        0.28830    0.31010    0.81940    1.000
    C17      C        0.45500    0.30190    0.76960    1.000
    C18      C        0.73830    0.24700    0.72690    1.000
    C19      C        0.01980    0.02860    0.83670    1.000
    C20      C        0.03800    0.02750    0.95310    1.000
    S1       S        0.79372    0.78922    0.60834    1.000
    S2       S        0.17802    0.69208    0.66164    1.000
    S3       S        0.36339    0.82215    0.15326    1.000
    S4       S        0.04853    0.81173    0.28823    1.000
    S5       S        0.20628    0.21078    0.39166    1.000
    S6       S        0.82198    0.30792    0.33836    1.000
    S7       S        0.63661    0.17785    0.84674    1.000
    S8       S        0.95147    0.18827    0.71177    1.000
    N1       N        0.83090    0.62350    0.53760    1.000
    N2       N        0.99190    0.61330    0.56920    1.000
    N3       N        0.52430    0.61500    0.33320    1.000
    N4       N        0.35860    0.64600    0.35830    1.000
    N5       N        0.16910    0.37650    0.46240    1.000
    N6       N        0.00810    0.38670    0.43080    1.000
    N7       N        0.47570    0.38500    0.66680    1.000
    N8       N        0.64140    0.35400    0.64170    1.000
    Cl1      Cl       0.52230    0.93490    0.78321    1.000
    O1       O        0.67350    0.96270    0.74770    1.000
    O2       O        0.46560    0.89910    0.70960    1.000
    O3       O        0.56000    0.83000    0.89900    1.000
    O4       O        0.39940    0.04380    0.77860    1.000
    Cl2      Cl       0.47770    0.06510    0.21679    1.000
    O5       O        0.32650    0.03730    0.25230    1.000
    O6       O        0.53440    0.10090    0.29040    1.000
    O7       O        0.44000    0.17000    0.10100    1.000
    O8       O        0.60060    0.95620    0.22140    1.000
