# CIF file generated by openbabel 3.1.0, see https://openbabel.org
data_I
_chemical_name_common 'image0'
_cell_length_a 19.758
_cell_length_b 7.228
_cell_length_c 17.53
_cell_angle_alpha 90
_cell_angle_beta 90
_cell_angle_gamma 90
_space_group_name_H-M_alt 'P 1'
_space_group_name_Hall 'P 1'
loop_
    _symmetry_equiv_pos_as_xyz
    x,y,z
loop_
    _atom_site_label
    _atom_site_type_symbol
    _atom_site_fract_x
    _atom_site_fract_y
    _atom_site_fract_z
    _atom_site_occupancy
    N1       N        0.05600    0.09710    0.32190    1.000
    N2       N        0.03940    0.16110    0.39100    1.000
    C1       C        0.12670    0.10100    0.17190    1.000
    C2       C        0.06180    0.12100    0.15030    1.000
    C3       C        0.07800    0.12900    0.07200    1.000
    C4       C        0.14430    0.10100    0.09340    1.000
    N3       N        0.44400    0.90290    0.82190    1.000
    N4       N        0.46060    0.83890    0.89100    1.000
    C5       C        0.37330    0.89900    0.67190    1.000
    C6       C        0.43820    0.87900    0.65030    1.000
    C7       C        0.42200    0.87100    0.57200    1.000
    C8       C        0.35570    0.89900    0.59340    1.000
    N5       N        0.94400    0.59710    0.67810    1.000
    N6       N        0.96060    0.66110    0.60900    1.000
    C9       C        0.87330    0.60100    0.82810    1.000
    C10      C        0.93820    0.62100    0.84970    1.000
    C11      C        0.92200    0.62900    0.92800    1.000
    C12      C        0.85570    0.60100    0.90660    1.000
    N7       N        0.55600    0.40290    0.17810    1.000
    N8       N        0.53940    0.33890    0.10900    1.000
    C13      C        0.62670    0.39900    0.32810    1.000
    C14      C        0.56180    0.37900    0.34970    1.000
    C15      C        0.57800    0.37100    0.42800    1.000
    C16      C        0.64430    0.39900    0.40660    1.000
    N9       N        0.94400    0.90290    0.67810    1.000
    N10      N        0.96060    0.83890    0.60900    1.000
    C17      C        0.87330    0.89900    0.82810    1.000
    C18      C        0.93820    0.87900    0.84970    1.000
    C19      C        0.92200    0.87100    0.92800    1.000
    C20      C        0.85570    0.89900    0.90660    1.000
    N11      N        0.55600    0.09710    0.17810    1.000
    N12      N        0.53940    0.16110    0.10900    1.000
    C21      C        0.62670    0.10100    0.32810    1.000
    C22      C        0.56180    0.12100    0.34970    1.000
    C23      C        0.57800    0.12900    0.42800    1.000
    C24      C        0.64430    0.10100    0.40660    1.000
    N13      N        0.05600    0.40290    0.32190    1.000
    N14      N        0.03940    0.33890    0.39100    1.000
    C25      C        0.12670    0.39900    0.17190    1.000
    C26      C        0.06180    0.37900    0.15030    1.000
    C27      C        0.07800    0.37100    0.07200    1.000
    C28      C        0.14430    0.39900    0.09340    1.000
    N15      N        0.44400    0.59710    0.82190    1.000
    N16      N        0.46060    0.66110    0.89100    1.000
    C29      C        0.37330    0.60100    0.67190    1.000
    C30      C        0.43820    0.62100    0.65030    1.000
    C31      C        0.42200    0.62900    0.57200    1.000
    C32      C        0.35570    0.60100    0.59340    1.000
    Cd1      Cd       0.44007    0.25000    0.81937    1.000
    O1       O        0.34750    0.25000    0.90470    1.000
    O2       O        0.32580    0.25000    0.78230    1.000
    O3       O        0.00370    0.25000    0.78260    1.000
    O4       O        0.08550    0.25000    0.69800    1.000
    C33      C        0.06580    0.25000    0.28050    1.000
    C34      C        0.30570    0.25000    0.85010    1.000
    C35      C        0.23140    0.25000    0.86910    1.000
    C36      C        0.21050    0.25000    0.94440    1.000
    H1       H        0.24260    0.25000    0.98320    1.000
    C37      C        0.14220    0.25000    0.96280    1.000
    C38      C        0.12070    0.25000    0.04410    1.000
    C39      C        0.06510    0.25000    0.76370    1.000
    C40      C        0.11690    0.25000    0.82920    1.000
    C41      C        0.09650    0.25000    0.90350    1.000
    H2       H        0.05040    0.25000    0.91450    1.000
    C42      C        0.18370    0.25000    0.81070    1.000
    H3       H        0.19730    0.25000    0.76000    1.000
    C43      C        0.08480    0.25000    0.19870    1.000
    O5       O        0.50090    0.25000    0.92800    1.000
    Cd2      Cd       0.05993    0.75000    0.31937    1.000
    O6       O        0.15250    0.75000    0.40470    1.000
    O7       O        0.17420    0.75000    0.28230    1.000
    O8       O        0.49630    0.75000    0.28260    1.000
    O9       O        0.41450    0.75000    0.19800    1.000
    C44      C        0.43420    0.75000    0.78050    1.000
    C45      C        0.19430    0.75000    0.35010    1.000
    C46      C        0.26860    0.75000    0.36910    1.000
    C47      C        0.28950    0.75000    0.44440    1.000
    H4       H        0.25740    0.75000    0.48320    1.000
    C48      C        0.35780    0.75000    0.46280    1.000
    C49      C        0.37930    0.75000    0.54410    1.000
    C50      C        0.43490    0.75000    0.26370    1.000
    C51      C        0.38310    0.75000    0.32920    1.000
    C52      C        0.40350    0.75000    0.40350    1.000
    H5       H        0.44960    0.75000    0.41450    1.000
    C53      C        0.31630    0.75000    0.31070    1.000
    H6       H        0.30270    0.75000    0.26000    1.000
    C54      C        0.41520    0.75000    0.69870    1.000
    O10      O        0.99910    0.75000    0.42800    1.000
    Cd3      Cd       0.55993    0.75000    0.18063    1.000
    O11      O        0.65250    0.75000    0.09530    1.000
    O12      O        0.67420    0.75000    0.21770    1.000
    O13      O        0.99630    0.75000    0.21740    1.000
    O14      O        0.91450    0.75000    0.30200    1.000
    C55      C        0.93420    0.75000    0.71950    1.000
    C56      C        0.69430    0.75000    0.14990    1.000
    C57      C        0.76860    0.75000    0.13090    1.000
    C58      C        0.78950    0.75000    0.05560    1.000
    H7       H        0.75740    0.75000    0.01680    1.000
    C59      C        0.85780    0.75000    0.03720    1.000
    C60      C        0.87930    0.75000    0.95590    1.000
    C61      C        0.93490    0.75000    0.23630    1.000
    C62      C        0.88310    0.75000    0.17080    1.000
    C63      C        0.90350    0.75000    0.09650    1.000
    H8       H        0.94960    0.75000    0.08550    1.000
    C64      C        0.81630    0.75000    0.18930    1.000
    H9       H        0.80270    0.75000    0.24000    1.000
    C65      C        0.91520    0.75000    0.80130    1.000
    O15      O        0.49910    0.75000    0.07200    1.000
    Cd4      Cd       0.94007    0.25000    0.68063    1.000
    O16      O        0.84750    0.25000    0.59530    1.000
    O17      O        0.82580    0.25000    0.71770    1.000
    O18      O        0.50370    0.25000    0.71740    1.000
    O19      O        0.58550    0.25000    0.80200    1.000
    C66      C        0.56580    0.25000    0.21950    1.000
    C67      C        0.80570    0.25000    0.64990    1.000
    C68      C        0.73140    0.25000    0.63090    1.000
    C69      C        0.71050    0.25000    0.55560    1.000
    H10      H        0.74260    0.25000    0.51680    1.000
    C70      C        0.64220    0.25000    0.53720    1.000
    C71      C        0.62070    0.25000    0.45590    1.000
    C72      C        0.56510    0.25000    0.73630    1.000
    C73      C        0.61690    0.25000    0.67080    1.000
    C74      C        0.59650    0.25000    0.59650    1.000
    H11      H        0.55040    0.25000    0.58550    1.000
    C75      C        0.68370    0.25000    0.68930    1.000
    H12      H        0.69730    0.25000    0.74000    1.000
    C76      C        0.58480    0.25000    0.30130    1.000
    O20      O        0.00090    0.25000    0.57200    1.000
    Cd5      Cd       0.50000    0.50000    0.00000    1.000
    Cd6      Cd       0.00000    0.50000    0.50000    1.000
    Cd7      Cd       0.50000    0.00000    0.00000    1.000
    Cd8      Cd       0.00000    0.00000    0.50000    1.000
