# CIF file generated by openbabel 3.1.0, see https://openbabel.org
data_I
_chemical_name_common 'image0'
_cell_length_a 13.582
_cell_length_b 10.8173
_cell_length_c 14.7037
_cell_angle_alpha 90
_cell_angle_beta 110.628
_cell_angle_gamma 90
_space_group_name_H-M_alt 'P 1'
_space_group_name_Hall 'P 1'
loop_
    _symmetry_equiv_pos_as_xyz
    x,y,z
loop_
    _atom_site_label
    _atom_site_type_symbol
    _atom_site_fract_x
    _atom_site_fract_y
    _atom_site_fract_z
    _atom_site_occupancy
    Co1      Co       0.40941    0.90254    0.46114    1.000
    Co2      Co       0.50410    0.01046    0.29235    1.000
    O1       O        0.30172    0.03083    0.37160    1.000
    O2       O        0.38877    0.13630    0.29235    1.000
    O3       O        0.38447    0.40418    0.23928    1.000
    O4       O        0.31142    0.28408    0.10944    1.000
    O5       O        0.63364    0.27725    0.15496    1.000
    O6       O        0.62982    0.39602    0.27882    1.000
    O7       O        0.62142    0.14716    0.34224    1.000
    O8       O        0.71553    0.15317    0.50142    1.000
    O9       O        0.53886    0.95816    0.43238    1.000
    C1       C        0.31113    0.11726    0.31921    1.000
    C2       C        0.22301    0.20960    0.28510    1.000
    C3       C        0.13865    0.19590    0.31731    1.000
    H1       H        0.13880    0.13010    0.35800    1.000
    C4       C        0.05419    0.27770    0.29054    1.000
    C5       C        0.05648    0.37570    0.22964    1.000
    H2       H        0.00120    0.43190    0.21060    1.000
    C6       C        0.14014    0.39060    0.19701    1.000
    H3       H        0.13990    0.45670    0.15650    1.000
    C7       C        0.22444    0.30820    0.22402    1.000
    C8       C        0.31480    0.33170    0.18789    1.000
    C9       C        0.96545    0.25880    0.32628    1.000
    C10      C        0.86282    0.29380    0.26968    1.000
    H4       H        0.85030    0.33280    0.21030    1.000
    C11      C        0.77952    0.27067    0.30137    1.000
    C12      C        0.79689    0.20917    0.38915    1.000
    C13      C        0.89896    0.17870    0.44720    1.000
    H5       H        0.91150    0.14160    0.50730    1.000
    C14      C        0.98228    0.20300    0.41637    1.000
    H6       H        0.05030    0.18200    0.45600    1.000
    C15      C        0.67144    0.31693    0.24067    1.000
    C16      C        0.70345    0.16676    0.41314    1.000
    Co3      Co       0.59059    0.40254    0.03886    1.000
    Co4      Co       0.49590    0.51046    0.20765    1.000
    O10      O        0.69828    0.53083    0.12840    1.000
    O11      O        0.61123    0.63630    0.20765    1.000
    O12      O        0.61553    0.90418    0.26072    1.000
    O13      O        0.68858    0.78408    0.39056    1.000
    O14      O        0.36636    0.77725    0.34504    1.000
    O15      O        0.37018    0.89602    0.22118    1.000
    O16      O        0.37858    0.64716    0.15776    1.000
    O17      O        0.28447    0.65317    0.99858    1.000
    O18      O        0.46114    0.45816    0.06762    1.000
    C17      C        0.68887    0.61726    0.18079    1.000
    C18      C        0.77699    0.70960    0.21490    1.000
    C19      C        0.86135    0.69590    0.18269    1.000
    H7       H        0.86120    0.63010    0.14200    1.000
    C20      C        0.94581    0.77770    0.20946    1.000
    C21      C        0.94352    0.87570    0.27036    1.000
    H8       H        0.99880    0.93190    0.28940    1.000
    C22      C        0.85986    0.89060    0.30299    1.000
    H9       H        0.86010    0.95670    0.34350    1.000
    C23      C        0.77556    0.80820    0.27598    1.000
    C24      C        0.68520    0.83170    0.31211    1.000
    C25      C        0.03455    0.75880    0.17372    1.000
    C26      C        0.13718    0.79380    0.23032    1.000
    H10      H        0.14970    0.83280    0.28970    1.000
    C27      C        0.22048    0.77067    0.19863    1.000
    C28      C        0.20311    0.70917    0.11085    1.000
    C29      C        0.10104    0.67870    0.05280    1.000
    H11      H        0.08850    0.64160    0.99270    1.000
    C30      C        0.01772    0.70300    0.08363    1.000
    H12      H        0.94970    0.68200    0.04400    1.000
    C31      C        0.32856    0.81693    0.25933    1.000
    C32      C        0.29655    0.66676    0.08686    1.000
    Co5      Co       0.59059    0.09746    0.53886    1.000
    Co6      Co       0.49590    0.98954    0.70765    1.000
    O19      O        0.69828    0.96917    0.62840    1.000
    O20      O        0.61123    0.86370    0.70765    1.000
    O21      O        0.61553    0.59582    0.76072    1.000
    O22      O        0.68858    0.71592    0.89056    1.000
    O23      O        0.36636    0.72275    0.84504    1.000
    O24      O        0.37018    0.60398    0.72118    1.000
    O25      O        0.37858    0.85284    0.65776    1.000
    O26      O        0.28447    0.84683    0.49858    1.000
    O27      O        0.46114    0.04184    0.56762    1.000
    C33      C        0.68887    0.88274    0.68079    1.000
    C34      C        0.77699    0.79040    0.71490    1.000
    C35      C        0.86135    0.80410    0.68269    1.000
    H13      H        0.86120    0.86990    0.64200    1.000
    C36      C        0.94581    0.72230    0.70946    1.000
    C37      C        0.94352    0.62430    0.77036    1.000
    H14      H        0.99880    0.56810    0.78940    1.000
    C38      C        0.85986    0.60940    0.80299    1.000
    H15      H        0.86010    0.54330    0.84350    1.000
    C39      C        0.77556    0.69180    0.77598    1.000
    C40      C        0.68520    0.66830    0.81211    1.000
    C41      C        0.03455    0.74120    0.67372    1.000
    C42      C        0.13718    0.70620    0.73032    1.000
    H16      H        0.14970    0.66720    0.78970    1.000
    C43      C        0.22048    0.72933    0.69863    1.000
    C44      C        0.20311    0.79083    0.61085    1.000
    C45      C        0.10104    0.82130    0.55280    1.000
    H17      H        0.08850    0.85840    0.49270    1.000
    C46      C        0.01772    0.79700    0.58363    1.000
    H18      H        0.94970    0.81800    0.54400    1.000
    C47      C        0.32856    0.68307    0.75933    1.000
    C48      C        0.29655    0.83324    0.58686    1.000
    Co7      Co       0.40941    0.59746    0.96114    1.000
    Co8      Co       0.50410    0.48954    0.79235    1.000
    O28      O        0.30172    0.46917    0.87160    1.000
    O29      O        0.38877    0.36370    0.79235    1.000
    O30      O        0.38447    0.09582    0.73928    1.000
    O31      O        0.31142    0.21592    0.60944    1.000
    O32      O        0.63364    0.22275    0.65496    1.000
    O33      O        0.62982    0.10398    0.77882    1.000
    O34      O        0.62142    0.35284    0.84224    1.000
    O35      O        0.71553    0.34683    0.00142    1.000
    O36      O        0.53886    0.54184    0.93238    1.000
    C49      C        0.31113    0.38274    0.81921    1.000
    C50      C        0.22301    0.29040    0.78510    1.000
    C51      C        0.13865    0.30410    0.81731    1.000
    H19      H        0.13880    0.36990    0.85800    1.000
    C52      C        0.05419    0.22230    0.79054    1.000
    C53      C        0.05648    0.12430    0.72964    1.000
    H20      H        0.00120    0.06810    0.71060    1.000
    C54      C        0.14014    0.10940    0.69701    1.000
    H21      H        0.13990    0.04330    0.65650    1.000
    C55      C        0.22444    0.19180    0.72402    1.000
    C56      C        0.31480    0.16830    0.68789    1.000
    C57      C        0.96545    0.24120    0.82628    1.000
    C58      C        0.86282    0.20620    0.76968    1.000
    H22      H        0.85030    0.16720    0.71030    1.000
    C59      C        0.77952    0.22933    0.80137    1.000
    C60      C        0.79689    0.29083    0.88915    1.000
    C61      C        0.89896    0.32130    0.94720    1.000
    H23      H        0.91150    0.35840    0.00730    1.000
    C62      C        0.98228    0.29700    0.91637    1.000
    H24      H        0.05030    0.31800    0.95600    1.000
    C63      C        0.67144    0.18307    0.74067    1.000
    C64      C        0.70345    0.33324    0.91314    1.000
