# CIF file generated by openbabel 3.1.0, see https://openbabel.org
data_I
_chemical_name_common 'image0'
_cell_length_a 31.1622
_cell_length_b 31.1622
_cell_length_c 11.1615
_cell_angle_alpha 90
_cell_angle_beta 90
_cell_angle_gamma 90
_space_group_name_H-M_alt 'P 1'
_space_group_name_Hall 'P 1'
loop_
    _symmetry_equiv_pos_as_xyz
    x,y,z
loop_
    _atom_site_label
    _atom_site_type_symbol
    _atom_site_fract_x
    _atom_site_fract_y
    _atom_site_fract_z
    _atom_site_occupancy
    O1       O        0.45540    0.21500    0.44200    1.000
    O2       O        0.27360    0.04430    0.41820    1.000
    O3       O        0.45500    0.19120    0.26000    1.000
    O4       O        0.29780    0.04420    0.61020    1.000
    C1       C        0.44300    0.19210    0.36550    1.000
    C2       C        0.40760    0.15960    0.39740    1.000
    C3       C        0.29800    0.05650    0.50410    1.000
    C4       C        0.33190    0.08890    0.47170    1.000
    B1       B        0.35880    0.16520    0.37100    1.000
    B2       B        0.38200    0.15740    0.51300    1.000
    B3       B        0.32910    0.13870    0.49000    1.000
    B4       B        0.41570    0.11550    0.46000    1.000
    B5       B        0.33610    0.11240    0.34100    1.000
    B6       B        0.39150    0.12200    0.31200    1.000
    B7       B        0.37540    0.07830    0.40800    1.000
    B8       B        0.36900    0.10400    0.55100    1.000
    H1       H        0.34710    0.19151    0.33148    1.000
    H2       H        0.38739    0.17876    0.57846    1.000
    H3       H        0.30348    0.15249    0.52715    1.000
    H4       H        0.44500    0.10571    0.48392    1.000
    H5       H        0.31579    0.10732    0.27320    1.000
    H6       H        0.40348    0.11700    0.23019    1.000
    H7       H        0.38329    0.04804    0.38722    1.000
    H8       H        0.37253    0.09276    0.63405    1.000
    O5       O        0.95540    0.71500    0.94200    1.000
    O6       O        0.77360    0.54430    0.91820    1.000
    O7       O        0.95500    0.69120    0.76000    1.000
    O8       O        0.79780    0.54420    0.11020    1.000
    C5       C        0.94300    0.69210    0.86550    1.000
    C6       C        0.90760    0.65960    0.89740    1.000
    C7       C        0.79800    0.55650    0.00410    1.000
    C8       C        0.83190    0.58890    0.97170    1.000
    B9       B        0.85880    0.66520    0.87100    1.000
    B10      B        0.88200    0.65740    0.01300    1.000
    B11      B        0.82910    0.63870    0.99000    1.000
    B12      B        0.91570    0.61550    0.96000    1.000
    B13      B        0.83610    0.61240    0.84100    1.000
    B14      B        0.89150    0.62200    0.81200    1.000
    B15      B        0.87540    0.57830    0.90800    1.000
    B16      B        0.86900    0.60400    0.05100    1.000
    H9       H        0.84710    0.69151    0.83148    1.000
    H10      H        0.88739    0.67876    0.07846    1.000
    H11      H        0.80348    0.65249    0.02715    1.000
    H12      H        0.94500    0.60571    0.98392    1.000
    H13      H        0.81579    0.60732    0.77320    1.000
    H14      H        0.90348    0.61700    0.73019    1.000
    H15      H        0.88329    0.54804    0.88722    1.000
    H16      H        0.87253    0.59276    0.13405    1.000
    O9       O        0.04460    0.28500    0.94200    1.000
    O10      O        0.22640    0.45570    0.91820    1.000
    O11      O        0.04500    0.30880    0.76000    1.000
    O12      O        0.20220    0.45580    0.11020    1.000
    C9       C        0.05700    0.30790    0.86550    1.000
    C10      C        0.09240    0.34040    0.89740    1.000
    C11      C        0.20200    0.44350    0.00410    1.000
    C12      C        0.16810    0.41110    0.97170    1.000
    B17      B        0.14120    0.33480    0.87100    1.000
    B18      B        0.11800    0.34260    0.01300    1.000
    B19      B        0.17090    0.36130    0.99000    1.000
    B20      B        0.08430    0.38450    0.96000    1.000
    B21      B        0.16390    0.38760    0.84100    1.000
    B22      B        0.10850    0.37800    0.81200    1.000
    B23      B        0.12460    0.42170    0.90800    1.000
    B24      B        0.13100    0.39600    0.05100    1.000
    H17      H        0.15290    0.30849    0.83148    1.000
    H18      H        0.11261    0.32124    0.07846    1.000
    H19      H        0.19652    0.34751    0.02715    1.000
    H20      H        0.05500    0.39429    0.98392    1.000
    H21      H        0.18421    0.39268    0.77320    1.000
    H22      H        0.09652    0.38300    0.73019    1.000
    H23      H        0.11671    0.45196    0.88722    1.000
    H24      H        0.12747    0.40724    0.13405    1.000
    O13      O        0.54460    0.78500    0.44200    1.000
    O14      O        0.72640    0.95570    0.41820    1.000
    O15      O        0.54500    0.80880    0.26000    1.000
    O16      O        0.70220    0.95580    0.61020    1.000
    C13      C        0.55700    0.80790    0.36550    1.000
    C14      C        0.59240    0.84040    0.39740    1.000
    C15      C        0.70200    0.94350    0.50410    1.000
    C16      C        0.66810    0.91110    0.47170    1.000
    B25      B        0.64120    0.83480    0.37100    1.000
    B26      B        0.61800    0.84260    0.51300    1.000
    B27      B        0.67090    0.86130    0.49000    1.000
    B28      B        0.58430    0.88450    0.46000    1.000
    B29      B        0.66390    0.88760    0.34100    1.000
    B30      B        0.60850    0.87800    0.31200    1.000
    B31      B        0.62460    0.92170    0.40800    1.000
    B32      B        0.63100    0.89600    0.55100    1.000
    H25      H        0.65290    0.80849    0.33148    1.000
    H26      H        0.61261    0.82124    0.57846    1.000
    H27      H        0.69652    0.84751    0.52715    1.000
    H28      H        0.55500    0.89429    0.48392    1.000
    H29      H        0.68421    0.89268    0.27320    1.000
    H30      H        0.59652    0.88300    0.23019    1.000
    H31      H        0.61671    0.95196    0.38722    1.000
    H32      H        0.62747    0.90724    0.63405    1.000
    O17      O        0.78500    0.95540    0.69200    1.000
    O18      O        0.95570    0.77360    0.66820    1.000
    O19      O        0.80880    0.95500    0.51000    1.000
    O20      O        0.95580    0.79780    0.86020    1.000
    C17      C        0.80790    0.94300    0.61550    1.000
    C18      C        0.84040    0.90760    0.64740    1.000
    C19      C        0.94350    0.79800    0.75410    1.000
    C20      C        0.91110    0.83190    0.72170    1.000
    B33      B        0.83480    0.85880    0.62100    1.000
    B34      B        0.84260    0.88200    0.76300    1.000
    B35      B        0.86130    0.82910    0.74000    1.000
    B36      B        0.88450    0.91570    0.71000    1.000
    B37      B        0.88760    0.83610    0.59100    1.000
    B38      B        0.87800    0.89150    0.56200    1.000
    B39      B        0.92170    0.87540    0.65800    1.000
    B40      B        0.89600    0.86900    0.80100    1.000
    H33      H        0.80849    0.84710    0.58148    1.000
    H34      H        0.82124    0.88739    0.82846    1.000
    H35      H        0.84751    0.80348    0.77715    1.000
    H36      H        0.89429    0.94500    0.73392    1.000
    H37      H        0.89268    0.81579    0.52320    1.000
    H38      H        0.88300    0.90348    0.48019    1.000
    H39      H        0.95196    0.88329    0.63722    1.000
    H40      H        0.90724    0.87253    0.88405    1.000
    O21      O        0.28500    0.45540    0.19200    1.000
    O22      O        0.45570    0.27360    0.16820    1.000
    O23      O        0.30880    0.45500    0.01000    1.000
    O24      O        0.45580    0.29780    0.36020    1.000
    C21      C        0.30790    0.44300    0.11550    1.000
    C22      C        0.34040    0.40760    0.14740    1.000
    C23      C        0.44350    0.29800    0.25410    1.000
    C24      C        0.41110    0.33190    0.22170    1.000
    B41      B        0.33480    0.35880    0.12100    1.000
    B42      B        0.34260    0.38200    0.26300    1.000
    B43      B        0.36130    0.32910    0.24000    1.000
    B44      B        0.38450    0.41570    0.21000    1.000
    B45      B        0.38760    0.33610    0.09100    1.000
    B46      B        0.37800    0.39150    0.06200    1.000
    B47      B        0.42170    0.37540    0.15800    1.000
    B48      B        0.39600    0.36900    0.30100    1.000
    H41      H        0.30849    0.34710    0.08148    1.000
    H42      H        0.32124    0.38739    0.32846    1.000
    H43      H        0.34751    0.30348    0.27715    1.000
    H44      H        0.39429    0.44500    0.23392    1.000
    H45      H        0.39268    0.31579    0.02320    1.000
    H46      H        0.38300    0.40348    0.98019    1.000
    H47      H        0.45196    0.38329    0.13722    1.000
    H48      H        0.40724    0.37253    0.38405    1.000
    O25      O        0.71500    0.54460    0.19200    1.000
    O26      O        0.54430    0.72640    0.16820    1.000
    O27      O        0.69120    0.54500    0.01000    1.000
    O28      O        0.54420    0.70220    0.36020    1.000
    C25      C        0.69210    0.55700    0.11550    1.000
    C26      C        0.65960    0.59240    0.14740    1.000
    C27      C        0.55650    0.70200    0.25410    1.000
    C28      C        0.58890    0.66810    0.22170    1.000
    B49      B        0.66520    0.64120    0.12100    1.000
    B50      B        0.65740    0.61800    0.26300    1.000
    B51      B        0.63870    0.67090    0.24000    1.000
    B52      B        0.61550    0.58430    0.21000    1.000
    B53      B        0.61240    0.66390    0.09100    1.000
    B54      B        0.62200    0.60850    0.06200    1.000
    B55      B        0.57830    0.62460    0.15800    1.000
    B56      B        0.60400    0.63100    0.30100    1.000
    H49      H        0.69151    0.65290    0.08148    1.000
    H50      H        0.67876    0.61261    0.32846    1.000
    H51      H        0.65249    0.69652    0.27715    1.000
    H52      H        0.60571    0.55500    0.23392    1.000
    H53      H        0.60732    0.68421    0.02320    1.000
    H54      H        0.61700    0.59652    0.98019    1.000
    H55      H        0.54804    0.61671    0.13722    1.000
    H56      H        0.59276    0.62747    0.38405    1.000
    O29      O        0.21500    0.04460    0.69200    1.000
    O30      O        0.04430    0.22640    0.66820    1.000
    O31      O        0.19120    0.04500    0.51000    1.000
    O32      O        0.04420    0.20220    0.86020    1.000
    C29      C        0.19210    0.05700    0.61550    1.000
    C30      C        0.15960    0.09240    0.64740    1.000
    C31      C        0.05650    0.20200    0.75410    1.000
    C32      C        0.08890    0.16810    0.72170    1.000
    B57      B        0.16520    0.14120    0.62100    1.000
    B58      B        0.15740    0.11800    0.76300    1.000
    B59      B        0.13870    0.17090    0.74000    1.000
    B60      B        0.11550    0.08430    0.71000    1.000
    B61      B        0.11240    0.16390    0.59100    1.000
    B62      B        0.12200    0.10850    0.56200    1.000
    B63      B        0.07830    0.12460    0.65800    1.000
    B64      B        0.10400    0.13100    0.80100    1.000
    H57      H        0.19151    0.15290    0.58148    1.000
    H58      H        0.17876    0.11261    0.82846    1.000
    H59      H        0.15249    0.19652    0.77715    1.000
    H60      H        0.10571    0.05500    0.73392    1.000
    H61      H        0.10732    0.18421    0.52320    1.000
    H62      H        0.11700    0.09652    0.48019    1.000
    H63      H        0.04804    0.11671    0.63722    1.000
    H64      H        0.09276    0.12747    0.88405    1.000
    O33      O        0.45540    0.78500    0.44200    1.000
    O34      O        0.27360    0.95570    0.41820    1.000
    O35      O        0.45500    0.80880    0.26000    1.000
    O36      O        0.29780    0.95580    0.61020    1.000
    C33      C        0.44300    0.80790    0.36550    1.000
    C34      C        0.40760    0.84040    0.39740    1.000
    C35      C        0.29800    0.94350    0.50410    1.000
    C36      C        0.33190    0.91110    0.47170    1.000
    B65      B        0.35880    0.83480    0.37100    1.000
    B66      B        0.38200    0.84260    0.51300    1.000
    B67      B        0.32910    0.86130    0.49000    1.000
    B68      B        0.41570    0.88450    0.46000    1.000
    B69      B        0.33610    0.88760    0.34100    1.000
    B70      B        0.39150    0.87800    0.31200    1.000
    B71      B        0.37540    0.92170    0.40800    1.000
    B72      B        0.36900    0.89600    0.55100    1.000
    H65      H        0.34710    0.80849    0.33148    1.000
    H66      H        0.38739    0.82124    0.57846    1.000
    H67      H        0.30348    0.84751    0.52715    1.000
    H68      H        0.44500    0.89429    0.48392    1.000
    H69      H        0.31579    0.89268    0.27320    1.000
    H70      H        0.40348    0.88300    0.23019    1.000
    H71      H        0.38329    0.95196    0.38722    1.000
    H72      H        0.37253    0.90724    0.63405    1.000
    O37      O        0.95540    0.28500    0.94200    1.000
    O38      O        0.77360    0.45570    0.91820    1.000
    O39      O        0.95500    0.30880    0.76000    1.000
    O40      O        0.79780    0.45580    0.11020    1.000
    C37      C        0.94300    0.30790    0.86550    1.000
    C38      C        0.90760    0.34040    0.89740    1.000
    C39      C        0.79800    0.44350    0.00410    1.000
    C40      C        0.83190    0.41110    0.97170    1.000
    B73      B        0.85880    0.33480    0.87100    1.000
    B74      B        0.88200    0.34260    0.01300    1.000
    B75      B        0.82910    0.36130    0.99000    1.000
    B76      B        0.91570    0.38450    0.96000    1.000
    B77      B        0.83610    0.38760    0.84100    1.000
    B78      B        0.89150    0.37800    0.81200    1.000
    B79      B        0.87540    0.42170    0.90800    1.000
    B80      B        0.86900    0.39600    0.05100    1.000
    H73      H        0.84710    0.30849    0.83148    1.000
    H74      H        0.88739    0.32124    0.07846    1.000
    H75      H        0.80348    0.34751    0.02715    1.000
    H76      H        0.94500    0.39429    0.98392    1.000
    H77      H        0.81579    0.39268    0.77320    1.000
    H78      H        0.90348    0.38300    0.73019    1.000
    H79      H        0.88329    0.45196    0.88722    1.000
    H80      H        0.87253    0.40724    0.13405    1.000
    O41      O        0.04460    0.71500    0.94200    1.000
    O42      O        0.22640    0.54430    0.91820    1.000
    O43      O        0.04500    0.69120    0.76000    1.000
    O44      O        0.20220    0.54420    0.11020    1.000
    C41      C        0.05700    0.69210    0.86550    1.000
    C42      C        0.09240    0.65960    0.89740    1.000
    C43      C        0.20200    0.55650    0.00410    1.000
    C44      C        0.16810    0.58890    0.97170    1.000
    B81      B        0.14120    0.66520    0.87100    1.000
    B82      B        0.11800    0.65740    0.01300    1.000
    B83      B        0.17090    0.63870    0.99000    1.000
    B84      B        0.08430    0.61550    0.96000    1.000
    B85      B        0.16390    0.61240    0.84100    1.000
    B86      B        0.10850    0.62200    0.81200    1.000
    B87      B        0.12460    0.57830    0.90800    1.000
    B88      B        0.13100    0.60400    0.05100    1.000
    H81      H        0.15290    0.69151    0.83148    1.000
    H82      H        0.11261    0.67876    0.07846    1.000
    H83      H        0.19652    0.65249    0.02715    1.000
    H84      H        0.05500    0.60571    0.98392    1.000
    H85      H        0.18421    0.60732    0.77320    1.000
    H86      H        0.09652    0.61700    0.73019    1.000
    H87      H        0.11671    0.54804    0.88722    1.000
    H88      H        0.12747    0.59276    0.13405    1.000
    O45      O        0.54460    0.21500    0.44200    1.000
    O46      O        0.72640    0.04430    0.41820    1.000
    O47      O        0.54500    0.19120    0.26000    1.000
    O48      O        0.70220    0.04420    0.61020    1.000
    C45      C        0.55700    0.19210    0.36550    1.000
    C46      C        0.59240    0.15960    0.39740    1.000
    C47      C        0.70200    0.05650    0.50410    1.000
    C48      C        0.66810    0.08890    0.47170    1.000
    B89      B        0.64120    0.16520    0.37100    1.000
    B90      B        0.61800    0.15740    0.51300    1.000
    B91      B        0.67090    0.13870    0.49000    1.000
    B92      B        0.58430    0.11550    0.46000    1.000
    B93      B        0.66390    0.11240    0.34100    1.000
    B94      B        0.60850    0.12200    0.31200    1.000
    B95      B        0.62460    0.07830    0.40800    1.000
    B96      B        0.63100    0.10400    0.55100    1.000
    H89      H        0.65290    0.19151    0.33148    1.000
    H90      H        0.61261    0.17876    0.57846    1.000
    H91      H        0.69652    0.15249    0.52715    1.000
    H92      H        0.55500    0.10571    0.48392    1.000
    H93      H        0.68421    0.10732    0.27320    1.000
    H94      H        0.59652    0.11700    0.23019    1.000
    H95      H        0.61671    0.04804    0.38722    1.000
    H96      H        0.62747    0.09276    0.63405    1.000
    O49      O        0.78500    0.04460    0.69200    1.000
    O50      O        0.95570    0.22640    0.66820    1.000
    O51      O        0.80880    0.04500    0.51000    1.000
    O52      O        0.95580    0.20220    0.86020    1.000
    C49      C        0.80790    0.05700    0.61550    1.000
    C50      C        0.84040    0.09240    0.64740    1.000
    C51      C        0.94350    0.20200    0.75410    1.000
    C52      C        0.91110    0.16810    0.72170    1.000
    B97      B        0.83480    0.14120    0.62100    1.000
    B98      B        0.84260    0.11800    0.76300    1.000
    B99      B        0.86130    0.17090    0.74000    1.000
    B100     B        0.88450    0.08430    0.71000    1.000
    B101     B        0.88760    0.16390    0.59100    1.000
    B102     B        0.87800    0.10850    0.56200    1.000
    B103     B        0.92170    0.12460    0.65800    1.000
    B104     B        0.89600    0.13100    0.80100    1.000
    H97      H        0.80849    0.15290    0.58148    1.000
    H98      H        0.82124    0.11261    0.82846    1.000
    H99      H        0.84751    0.19652    0.77715    1.000
    H100     H        0.89429    0.05500    0.73392    1.000
    H101     H        0.89268    0.18421    0.52320    1.000
    H102     H        0.88300    0.09652    0.48019    1.000
    H103     H        0.95196    0.11671    0.63722    1.000
    H104     H        0.90724    0.12747    0.88405    1.000
    O53      O        0.28500    0.54460    0.19200    1.000
    O54      O        0.45570    0.72640    0.16820    1.000
    O55      O        0.30880    0.54500    0.01000    1.000
    O56      O        0.45580    0.70220    0.36020    1.000
    C53      C        0.30790    0.55700    0.11550    1.000
    C54      C        0.34040    0.59240    0.14740    1.000
    C55      C        0.44350    0.70200    0.25410    1.000
    C56      C        0.41110    0.66810    0.22170    1.000
    B105     B        0.33480    0.64120    0.12100    1.000
    B106     B        0.34260    0.61800    0.26300    1.000
    B107     B        0.36130    0.67090    0.24000    1.000
    B108     B        0.38450    0.58430    0.21000    1.000
    B109     B        0.38760    0.66390    0.09100    1.000
    B110     B        0.37800    0.60850    0.06200    1.000
    B111     B        0.42170    0.62460    0.15800    1.000
    B112     B        0.39600    0.63100    0.30100    1.000
    H105     H        0.30849    0.65290    0.08148    1.000
    H106     H        0.32124    0.61261    0.32846    1.000
    H107     H        0.34751    0.69652    0.27715    1.000
    H108     H        0.39429    0.55500    0.23392    1.000
    H109     H        0.39268    0.68421    0.02320    1.000
    H110     H        0.38300    0.59652    0.98019    1.000
    H111     H        0.45196    0.61671    0.13722    1.000
    H112     H        0.40724    0.62747    0.38405    1.000
    O57      O        0.71500    0.45540    0.19200    1.000
    O58      O        0.54430    0.27360    0.16820    1.000
    O59      O        0.69120    0.45500    0.01000    1.000
    O60      O        0.54420    0.29780    0.36020    1.000
    C57      C        0.69210    0.44300    0.11550    1.000
    C58      C        0.65960    0.40760    0.14740    1.000
    C59      C        0.55650    0.29800    0.25410    1.000
    C60      C        0.58890    0.33190    0.22170    1.000
    B113     B        0.66520    0.35880    0.12100    1.000
    B114     B        0.65740    0.38200    0.26300    1.000
    B115     B        0.63870    0.32910    0.24000    1.000
    B116     B        0.61550    0.41570    0.21000    1.000
    B117     B        0.61240    0.33610    0.09100    1.000
    B118     B        0.62200    0.39150    0.06200    1.000
    B119     B        0.57830    0.37540    0.15800    1.000
    B120     B        0.60400    0.36900    0.30100    1.000
    H113     H        0.69151    0.34710    0.08148    1.000
    H114     H        0.67876    0.38739    0.32846    1.000
    H115     H        0.65249    0.30348    0.27715    1.000
    H116     H        0.60571    0.44500    0.23392    1.000
    H117     H        0.60732    0.31579    0.02320    1.000
    H118     H        0.61700    0.40348    0.98019    1.000
    H119     H        0.54804    0.38329    0.13722    1.000
    H120     H        0.59276    0.37253    0.38405    1.000
    O61      O        0.21500    0.95540    0.69200    1.000
    O62      O        0.04430    0.77360    0.66820    1.000
    O63      O        0.19120    0.95500    0.51000    1.000
    O64      O        0.04420    0.79780    0.86020    1.000
    C61      C        0.19210    0.94300    0.61550    1.000
    C62      C        0.15960    0.90760    0.64740    1.000
    C63      C        0.05650    0.79800    0.75410    1.000
    C64      C        0.08890    0.83190    0.72170    1.000
    B121     B        0.16520    0.85880    0.62100    1.000
    B122     B        0.15740    0.88200    0.76300    1.000
    B123     B        0.13870    0.82910    0.74000    1.000
    B124     B        0.11550    0.91570    0.71000    1.000
    B125     B        0.11240    0.83610    0.59100    1.000
    B126     B        0.12200    0.89150    0.56200    1.000
    B127     B        0.07830    0.87540    0.65800    1.000
    B128     B        0.10400    0.86900    0.80100    1.000
    H121     H        0.19151    0.84710    0.58148    1.000
    H122     H        0.17876    0.88739    0.82846    1.000
    H123     H        0.15249    0.80348    0.77715    1.000
    H124     H        0.10571    0.94500    0.73392    1.000
    H125     H        0.10732    0.81579    0.52320    1.000
    H126     H        0.11700    0.90348    0.48019    1.000
    H127     H        0.04804    0.88329    0.63722    1.000
    H128     H        0.09276    0.87253    0.88405    1.000
    Cu1      Cu       0.50000    0.22939    0.19550    1.000
    Cu2      Cu       0.50000    0.25836    0.42190    1.000
    Cu3      Cu       0.00000    0.27061    0.69550    1.000
    Cu4      Cu       0.00000    0.24164    0.92190    1.000
    Cu5      Cu       0.77061    0.00000    0.44550    1.000
    Cu6      Cu       0.74164    0.00000    0.67190    1.000
    Cu7      Cu       0.27061    0.50000    0.94550    1.000
    Cu8      Cu       0.24164    0.50000    0.17190    1.000
    Cu9      Cu       0.72939    0.50000    0.94550    1.000
    Cu10     Cu       0.75836    0.50000    0.17190    1.000
    Cu11     Cu       0.22939    0.00000    0.44550    1.000
    Cu12     Cu       0.25836    0.00000    0.67190    1.000
    Cu13     Cu       0.50000    0.77061    0.19550    1.000
    Cu14     Cu       0.50000    0.74164    0.42190    1.000
    Cu15     Cu       0.00000    0.72939    0.69550    1.000
    Cu16     Cu       0.00000    0.75836    0.92190    1.000
