# CIF file generated by openbabel 3.1.0, see https://openbabel.org
data_I
_chemical_name_common 'image0'
_cell_length_a 13.8684
_cell_length_b 13.8684
_cell_length_c 18.6368
_cell_angle_alpha 90
_cell_angle_beta 90
_cell_angle_gamma 120
_space_group_name_H-M_alt 'P 1'
_space_group_name_Hall 'P 1'
loop_
    _symmetry_equiv_pos_as_xyz
    x,y,z
loop_
    _atom_site_label
    _atom_site_type_symbol
    _atom_site_fract_x
    _atom_site_fract_y
    _atom_site_fract_z
    _atom_site_occupancy
    H1       H        0.27300    0.98800    0.98500    1.000
    H2       H        0.36500    0.10300    0.98700    1.000
    In1      In       0.43918    0.14564    0.03980    1.000
    P1       P        0.19152    0.03160    0.12807    1.000
    H3       H        0.20190    0.97400    0.15140    1.000
    P2       P        0.63055    0.12406    0.94196    1.000
    H4       H        0.67490    0.16470    0.90000    1.000
    O1       O        0.11610    0.97750    0.06340    1.000
    O2       O        0.14590    0.07760    0.18480    1.000
    O3       O        0.55760    0.23320    0.12060    1.000
    O4       O        0.55290    0.16830    0.95740    1.000
    O5       O        0.56800    0.00170    0.92180    1.000
    O6       O        0.71270    0.14570    0.00290    1.000
    O7       O        0.30710    0.12620    0.10710    1.000
    O8       O        0.30850    0.05260    0.95570    1.000
    H5       H        0.01200    0.28500    0.98500    1.000
    H6       H        0.89700    0.26200    0.98700    1.000
    In2      In       0.85436    0.29354    0.03980    1.000
    P3       P        0.96840    0.15992    0.12807    1.000
    H7       H        0.02600    0.22790    0.15140    1.000
    P4       P        0.87594    0.50649    0.94196    1.000
    H8       H        0.83530    0.51020    0.90000    1.000
    O9       O        0.02250    0.13860    0.06340    1.000
    O10      O        0.92240    0.06830    0.18480    1.000
    O11      O        0.76680    0.32440    0.12060    1.000
    O12      O        0.83170    0.38460    0.95740    1.000
    O13      O        0.99830    0.56630    0.92180    1.000
    O14      O        0.85430    0.56700    0.00290    1.000
    O15      O        0.87380    0.18090    0.10710    1.000
    O16      O        0.94740    0.25590    0.95570    1.000
    H9       H        0.71500    0.72700    0.98500    1.000
    H10      H        0.73800    0.63500    0.98700    1.000
    In3      In       0.70646    0.56082    0.03980    1.000
    P5       P        0.84008    0.80848    0.12807    1.000
    H11      H        0.77210    0.79810    0.15140    1.000
    P6       P        0.49351    0.36945    0.94196    1.000
    H12      H        0.48980    0.32510    0.90000    1.000
    O17      O        0.86140    0.88390    0.06340    1.000
    O18      O        0.93170    0.85410    0.18480    1.000
    O19      O        0.67560    0.44240    0.12060    1.000
    O20      O        0.61540    0.44710    0.95740    1.000
    O21      O        0.43370    0.43200    0.92180    1.000
    O22      O        0.43300    0.28730    0.00290    1.000
    O23      O        0.81910    0.69290    0.10710    1.000
    O24      O        0.74410    0.69150    0.95570    1.000
    H13      H        0.98800    0.27300    0.51500    1.000
    H14      H        0.10300    0.36500    0.51300    1.000
    In4      In       0.14564    0.43918    0.46020    1.000
    P7       P        0.03160    0.19152    0.37193    1.000
    H15      H        0.97400    0.20190    0.34860    1.000
    P8       P        0.12406    0.63055    0.55804    1.000
    H16      H        0.16470    0.67490    0.60000    1.000
    O25      O        0.97750    0.11610    0.43660    1.000
    O26      O        0.07760    0.14590    0.31520    1.000
    O27      O        0.23320    0.55760    0.37940    1.000
    O28      O        0.16830    0.55290    0.54260    1.000
    O29      O        0.00170    0.56800    0.57820    1.000
    O30      O        0.14570    0.71270    0.49710    1.000
    O31      O        0.12620    0.30710    0.39290    1.000
    O32      O        0.05260    0.30850    0.54430    1.000
    H17      H        0.28500    0.01200    0.51500    1.000
    H18      H        0.26200    0.89700    0.51300    1.000
    In5      In       0.29354    0.85436    0.46020    1.000
    P9       P        0.15992    0.96840    0.37193    1.000
    H19      H        0.22790    0.02600    0.34860    1.000
    P10      P        0.50649    0.87594    0.55804    1.000
    H20      H        0.51020    0.83530    0.60000    1.000
    O33      O        0.13860    0.02250    0.43660    1.000
    O34      O        0.06830    0.92240    0.31520    1.000
    O35      O        0.32440    0.76680    0.37940    1.000
    O36      O        0.38460    0.83170    0.54260    1.000
    O37      O        0.56630    0.99830    0.57820    1.000
    O38      O        0.56700    0.85430    0.49710    1.000
    O39      O        0.18090    0.87380    0.39290    1.000
    O40      O        0.25590    0.94740    0.54430    1.000
    H21      H        0.72700    0.71500    0.51500    1.000
    H22      H        0.63500    0.73800    0.51300    1.000
    In6      In       0.56082    0.70646    0.46020    1.000
    P11      P        0.80848    0.84008    0.37193    1.000
    H23      H        0.79810    0.77210    0.34860    1.000
    P12      P        0.36945    0.49351    0.55804    1.000
    H24      H        0.32510    0.48980    0.60000    1.000
    O41      O        0.88390    0.86140    0.43660    1.000
    O42      O        0.85410    0.93170    0.31520    1.000
    O43      O        0.44240    0.67560    0.37940    1.000
    O44      O        0.44710    0.61540    0.54260    1.000
    O45      O        0.43200    0.43370    0.57820    1.000
    O46      O        0.28730    0.43300    0.49710    1.000
    O47      O        0.69290    0.81910    0.39290    1.000
    O48      O        0.69150    0.74410    0.54430    1.000
    H25      H        0.72700    0.01200    0.01500    1.000
    H26      H        0.63500    0.89700    0.01300    1.000
    In7      In       0.56082    0.85436    0.96020    1.000
    P13      P        0.80848    0.96840    0.87193    1.000
    H27      H        0.79810    0.02600    0.84860    1.000
    P14      P        0.36945    0.87594    0.05804    1.000
    H28      H        0.32510    0.83530    0.10000    1.000
    O49      O        0.88390    0.02250    0.93660    1.000
    O50      O        0.85410    0.92240    0.81520    1.000
    O51      O        0.44240    0.76680    0.87940    1.000
    O52      O        0.44710    0.83170    0.04260    1.000
    O53      O        0.43200    0.99830    0.07820    1.000
    O54      O        0.28730    0.85430    0.99710    1.000
    O55      O        0.69290    0.87380    0.89290    1.000
    O56      O        0.69150    0.94740    0.04430    1.000
    H29      H        0.98800    0.71500    0.01500    1.000
    H30      H        0.10300    0.73800    0.01300    1.000
    In8      In       0.14564    0.70646    0.96020    1.000
    P15      P        0.03160    0.84008    0.87193    1.000
    H31      H        0.97400    0.77210    0.84860    1.000
    P16      P        0.12406    0.49351    0.05804    1.000
    H32      H        0.16470    0.48980    0.10000    1.000
    O57      O        0.97750    0.86140    0.93660    1.000
    O58      O        0.07760    0.93170    0.81520    1.000
    O59      O        0.23320    0.67560    0.87940    1.000
    O60      O        0.16830    0.61540    0.04260    1.000
    O61      O        0.00170    0.43370    0.07820    1.000
    O62      O        0.14570    0.43300    0.99710    1.000
    O63      O        0.12620    0.81910    0.89290    1.000
    O64      O        0.05260    0.74410    0.04430    1.000
    H33      H        0.28500    0.27300    0.01500    1.000
    H34      H        0.26200    0.36500    0.01300    1.000
    In9      In       0.29354    0.43918    0.96020    1.000
    P17      P        0.15992    0.19152    0.87193    1.000
    H35      H        0.22790    0.20190    0.84860    1.000
    P18      P        0.50649    0.63055    0.05804    1.000
    H36      H        0.51020    0.67490    0.10000    1.000
    O65      O        0.13860    0.11610    0.93660    1.000
    O66      O        0.06830    0.14590    0.81520    1.000
    O67      O        0.32440    0.55760    0.87940    1.000
    O68      O        0.38460    0.55290    0.04260    1.000
    O69      O        0.56630    0.56800    0.07820    1.000
    O70      O        0.56700    0.71270    0.99710    1.000
    O71      O        0.18090    0.30710    0.89290    1.000
    O72      O        0.25590    0.30850    0.04430    1.000
    H37      H        0.01200    0.72700    0.48500    1.000
    H38      H        0.89700    0.63500    0.48700    1.000
    In10     In       0.85436    0.56082    0.53980    1.000
    P19      P        0.96840    0.80848    0.62807    1.000
    H39      H        0.02600    0.79810    0.65140    1.000
    P20      P        0.87594    0.36945    0.44196    1.000
    H40      H        0.83530    0.32510    0.40000    1.000
    O73      O        0.02250    0.88390    0.56340    1.000
    O74      O        0.92240    0.85410    0.68480    1.000
    O75      O        0.76680    0.44240    0.62060    1.000
    O76      O        0.83170    0.44710    0.45740    1.000
    O77      O        0.99830    0.43200    0.42180    1.000
    O78      O        0.85430    0.28730    0.50290    1.000
    O79      O        0.87380    0.69290    0.60710    1.000
    O80      O        0.94740    0.69150    0.45570    1.000
    H41      H        0.71500    0.98800    0.48500    1.000
    H42      H        0.73800    0.10300    0.48700    1.000
    In11     In       0.70646    0.14564    0.53980    1.000
    P21      P        0.84008    0.03160    0.62807    1.000
    H43      H        0.77210    0.97400    0.65140    1.000
    P22      P        0.49351    0.12406    0.44196    1.000
    H44      H        0.48980    0.16470    0.40000    1.000
    O81      O        0.86140    0.97750    0.56340    1.000
    O82      O        0.93170    0.07760    0.68480    1.000
    O83      O        0.67560    0.23320    0.62060    1.000
    O84      O        0.61540    0.16830    0.45740    1.000
    O85      O        0.43370    0.00170    0.42180    1.000
    O86      O        0.43300    0.14570    0.50290    1.000
    O87      O        0.81910    0.12620    0.60710    1.000
    O88      O        0.74410    0.05260    0.45570    1.000
    H45      H        0.27300    0.28500    0.48500    1.000
    H46      H        0.36500    0.26200    0.48700    1.000
    In12     In       0.43918    0.29354    0.53980    1.000
    P23      P        0.19152    0.15992    0.62807    1.000
    H47      H        0.20190    0.22790    0.65140    1.000
    P24      P        0.63055    0.50649    0.44196    1.000
    H48      H        0.67490    0.51020    0.40000    1.000
    O89      O        0.11610    0.13860    0.56340    1.000
    O90      O        0.14590    0.06830    0.68480    1.000
    O91      O        0.55760    0.32440    0.62060    1.000
    O92      O        0.55290    0.38460    0.45740    1.000
    O93      O        0.56800    0.56630    0.42180    1.000
    O94      O        0.71270    0.56700    0.50290    1.000
    O95      O        0.30710    0.18090    0.60710    1.000
    O96      O        0.30850    0.25590    0.45570    1.000
    In13     In       0.00000    0.00000    0.00000    1.000
    In14     In       0.00000    0.00000    0.50000    1.000
    In15     In       0.00000    0.00000    0.25000    1.000
    In16     In       0.00000    0.00000    0.75000    1.000
    P25      P        0.66667    0.33333    0.14100    1.000
    H49      H        0.66667    0.33333    0.19360    1.000
    P26      P        0.33333    0.66667    0.35900    1.000
    H50      H        0.33333    0.66667    0.30640    1.000
    P27      P        0.33333    0.66667    0.85900    1.000
    H51      H        0.33333    0.66667    0.80640    1.000
    P28      P        0.66667    0.33333    0.64100    1.000
    H52      H        0.66667    0.33333    0.69360    1.000
