# CIF file generated by openbabel 3.1.0, see https://openbabel.org
data_I
_chemical_name_common 'image0'
_cell_length_a 11.878
_cell_length_b 12.419
_cell_length_c 12.489
_cell_angle_alpha 90
_cell_angle_beta 98.63
_cell_angle_gamma 90
_space_group_name_H-M_alt 'P 1'
_space_group_name_Hall 'P 1'
loop_
    _symmetry_equiv_pos_as_xyz
    x,y,z
loop_
    _atom_site_label
    _atom_site_type_symbol
    _atom_site_fract_x
    _atom_site_fract_y
    _atom_site_fract_z
    _atom_site_occupancy
    C1       C        0.51790    0.66050    0.51170    1.000
    C2       C        0.61360    0.62520    0.46990    1.000
    H1       H        0.67660    0.59890    0.51560    1.000
    C3       C        0.61320    0.63000    0.35910    1.000
    C4       C        0.51940    0.66580    0.28940    1.000
    H2       H        0.52090    0.66930    0.21520    1.000
    C5       C        0.42240    0.69640    0.33230    1.000
    C6       C        0.42240    0.69790    0.44260    1.000
    H3       H        0.35950    0.72360    0.47080    1.000
    C7       C        0.51510    0.65910    0.63090    1.000
    C8       C        0.72130    0.61890    0.21310    1.000
    H4       H        0.69780    0.69320    0.19550    1.000
    C9       C        0.64350    0.54220    0.13740    1.000
    C10      C        0.84450    0.60650    0.19860    1.000
    H5       H        0.88930    0.66100    0.23960    1.000
    H6       H        0.85130    0.61400    0.12330    1.000
    H7       H        0.87140    0.53670    0.22360    1.000
    C11      C        0.30990    0.70520    0.15720    1.000
    H8       H        0.34220    0.63410    0.14650    1.000
    C12      C        0.36940    0.78840    0.09390    1.000
    C13      C        0.18320    0.70110    0.11840    1.000
    H9       H        0.14980    0.64450    0.15550    1.000
    H10      H        0.16980    0.68740    0.04180    1.000
    H11      H        0.14940    0.76870    0.13300    1.000
    C14      C        0.97720    0.45320    0.90740    1.000
    C15      C        0.03540    0.45010    0.01160    1.000
    H12      H        0.99730    0.46280    0.07030    1.000
    C16      C        0.15070    0.42810    0.02810    1.000
    C17      C        0.20780    0.41020    0.94000    1.000
    H13      H        0.28550    0.39600    0.95100    1.000
    C18      C        0.14770    0.41380    0.83570    1.000
    C19      C        0.03250    0.43470    0.81820    1.000
    H14      H        0.99240    0.43640    0.74820    1.000
    C20      C        0.85230    0.47970    0.88920    1.000
    C21      C        0.31370    0.42850    0.75010    1.000
    H15      H        0.36240    0.37960    0.79820    1.000
    C22      C        0.33110    0.54360    0.79130    1.000
    C23      C        0.34440    0.42140    0.63540    1.000
    H16      H        0.32600    0.35090    0.60630    1.000
    H17      H        0.42440    0.43440    0.63780    1.000
    H18      H        0.30200    0.47440    0.59010    1.000
    C24      C        0.31660    0.40040    0.16100    1.000
    H19      H        0.36390    0.44730    0.12300    1.000
    C25      C        0.33640    0.28270    0.13380    1.000
    C26      C        0.34580    0.41610    0.28140    1.000
    H20      H        0.32640    0.48810    0.29980    1.000
    H21      H        0.42600    0.40480    0.30310    1.000
    H22      H        0.30380    0.36560    0.31810    1.000
    O1       O        0.44040    0.71570    0.66470    1.000
    O2       O        0.58730    0.60200    0.68810    1.000
    O3       O        0.71240    0.59950    0.32330    1.000
    O4       O        0.61860    0.45310    0.17180    1.000
    O5       O        0.60990    0.57800    0.04470    1.000
    O6       O        0.32370    0.72700    0.27060    1.000
    O7       O        0.37640    0.76280    0.99880    1.000
    O8       O        0.40750    0.87320    0.14060    1.000
    O9       O        0.80130    0.50410    0.79770    1.000
    O10      O        0.79930    0.47790    0.97140    1.000
    O11      O        0.20030    0.42860    0.13340    1.000
    O12      O        0.25710    0.21740    0.12140    1.000
    O13      O        0.43810    0.25500    0.12800    1.000
    O14      O        0.19810    0.39710    0.74470    1.000
    O15      O        0.25330    0.61150    0.76840    1.000
    O16      O        0.42640    0.56930    0.84440    1.000
    O17      O        0.24690    0.83940    0.65340    1.000
    H23      H        0.23910    0.89620    0.68950    1.000
    H24      H        0.20620    0.84410    0.59150    1.000
    Tb1      Tb       0.62814    0.55439    0.86800    1.000
    Tb2      Tb       0.36193    0.77053    0.81499    1.000
    C27      C        0.48210    0.16050    0.48830    1.000
    C28      C        0.38640    0.12520    0.53010    1.000
    H25      H        0.32340    0.09890    0.48440    1.000
    C29      C        0.38680    0.13000    0.64090    1.000
    C30      C        0.48060    0.16580    0.71060    1.000
    H26      H        0.47910    0.16930    0.78480    1.000
    C31      C        0.57760    0.19640    0.66770    1.000
    C32      C        0.57760    0.19790    0.55740    1.000
    H27      H        0.64050    0.22360    0.52920    1.000
    C33      C        0.48490    0.15910    0.36910    1.000
    C34      C        0.27870    0.11890    0.78690    1.000
    H28      H        0.30220    0.19320    0.80450    1.000
    C35      C        0.35650    0.04220    0.86260    1.000
    C36      C        0.15550    0.10650    0.80140    1.000
    H29      H        0.11070    0.16100    0.76040    1.000
    H30      H        0.14870    0.11400    0.87670    1.000
    H31      H        0.12860    0.03670    0.77640    1.000
    C37      C        0.69010    0.20520    0.84280    1.000
    H32      H        0.65780    0.13410    0.85350    1.000
    C38      C        0.63060    0.28840    0.90610    1.000
    C39      C        0.81680    0.20110    0.88160    1.000
    H33      H        0.85020    0.14450    0.84450    1.000
    H34      H        0.83020    0.18740    0.95820    1.000
    H35      H        0.85060    0.26870    0.86700    1.000
    C40      C        0.02280    0.95320    0.09260    1.000
    C41      C        0.96460    0.95010    0.98840    1.000
    H36      H        0.00270    0.96280    0.92970    1.000
    C42      C        0.84930    0.92810    0.97190    1.000
    C43      C        0.79220    0.91020    0.06000    1.000
    H37      H        0.71450    0.89600    0.04900    1.000
    C44      C        0.85230    0.91380    0.16430    1.000
    C45      C        0.96750    0.93470    0.18180    1.000
    H38      H        0.00760    0.93640    0.25180    1.000
    C46      C        0.14770    0.97970    0.11080    1.000
    C47      C        0.68630    0.92850    0.24990    1.000
    H39      H        0.63760    0.87960    0.20180    1.000
    C48      C        0.66890    0.04360    0.20870    1.000
    C49      C        0.65560    0.92140    0.36460    1.000
    H40      H        0.67400    0.85090    0.39370    1.000
    H41      H        0.57560    0.93440    0.36220    1.000
    H42      H        0.69800    0.97440    0.40990    1.000
    C50      C        0.68340    0.90040    0.83900    1.000
    H43      H        0.63610    0.94730    0.87700    1.000
    C51      C        0.66360    0.78270    0.86620    1.000
    C52      C        0.65420    0.91610    0.71860    1.000
    H44      H        0.67360    0.98810    0.70020    1.000
    H45      H        0.57400    0.90480    0.69690    1.000
    H46      H        0.69620    0.86560    0.68190    1.000
    O18      O        0.55960    0.21570    0.33530    1.000
    O19      O        0.41270    0.10200    0.31190    1.000
    O20      O        0.28760    0.09950    0.67670    1.000
    O21      O        0.38140    0.95310    0.82820    1.000
    O22      O        0.39010    0.07800    0.95530    1.000
    O23      O        0.67630    0.22700    0.72940    1.000
    O24      O        0.62360    0.26280    0.00120    1.000
    O25      O        0.59250    0.37320    0.85940    1.000
    O26      O        0.19870    0.00410    0.20230    1.000
    O27      O        0.20070    0.97790    0.02860    1.000
    O28      O        0.79970    0.92860    0.86660    1.000
    O29      O        0.74290    0.71740    0.87860    1.000
    O30      O        0.56190    0.75500    0.87200    1.000
    O31      O        0.80190    0.89710    0.25530    1.000
    O32      O        0.74670    0.11150    0.23160    1.000
    O33      O        0.57360    0.06930    0.15560    1.000
    O34      O        0.75310    0.33940    0.34660    1.000
    H47      H        0.76090    0.39620    0.31050    1.000
    H48      H        0.79380    0.34410    0.40850    1.000
    Tb3      Tb       0.37186    0.05439    0.13200    1.000
    Tb4      Tb       0.63807    0.27053    0.18501    1.000
