# CIF file generated by openbabel 3.1.0, see https://openbabel.org
data_I
_chemical_name_common 'image0'
_cell_length_a 26.124
_cell_length_b 26.124
_cell_length_c 26.124
_cell_angle_alpha 90
_cell_angle_beta 90
_cell_angle_gamma 90
_space_group_name_H-M_alt 'P 1'
_space_group_name_Hall 'P 1'
loop_
    _symmetry_equiv_pos_as_xyz
    x,y,z
loop_
    _atom_site_label
    _atom_site_type_symbol
    _atom_site_fract_x
    _atom_site_fract_y
    _atom_site_fract_z
    _atom_site_occupancy
    C1       C        0.00330    0.36750    0.05360    1.000
    H1       H        0.03230    0.38260    0.07120    1.000
    H2       H        0.97250    0.38490    0.06480    1.000
    C2       C        0.00960    0.37330    0.99730    1.000
    O1       O        0.01440    0.41730    0.97690    1.000
    O2       O        0.00890    0.33380    0.96990    1.000
    C3       C        0.00330    0.86750    0.55360    1.000
    H3       H        0.03230    0.88260    0.57120    1.000
    H4       H        0.97250    0.88490    0.56480    1.000
    C4       C        0.00960    0.87330    0.49730    1.000
    O3       O        0.01440    0.91730    0.47690    1.000
    O4       O        0.00890    0.83380    0.46990    1.000
    C5       C        0.50330    0.36750    0.55360    1.000
    H5       H        0.53230    0.38260    0.57120    1.000
    H6       H        0.47250    0.38490    0.56480    1.000
    C6       C        0.50960    0.37330    0.49730    1.000
    O5       O        0.51440    0.41730    0.47690    1.000
    O6       O        0.50890    0.33380    0.46990    1.000
    C7       C        0.50330    0.86750    0.05360    1.000
    H7       H        0.53230    0.88260    0.07120    1.000
    H8       H        0.47250    0.88490    0.06480    1.000
    C8       C        0.50960    0.87330    0.99730    1.000
    O7       O        0.51440    0.91730    0.97690    1.000
    O8       O        0.50890    0.83380    0.96990    1.000
    C9       C        0.24670    0.38250    0.55360    1.000
    H9       H        0.21770    0.36740    0.57120    1.000
    H10      H        0.27750    0.36510    0.56480    1.000
    C10      C        0.24040    0.37670    0.49730    1.000
    O9       O        0.23560    0.33270    0.47690    1.000
    O10      O        0.24110    0.41620    0.46990    1.000
    C11      C        0.24670    0.88250    0.05360    1.000
    H11      H        0.21770    0.86740    0.07120    1.000
    H12      H        0.27750    0.86510    0.06480    1.000
    C12      C        0.24040    0.87670    0.99730    1.000
    O11      O        0.23560    0.83270    0.97690    1.000
    O12      O        0.24110    0.91620    0.96990    1.000
    C13      C        0.74670    0.38250    0.05360    1.000
    H13      H        0.71770    0.36740    0.07120    1.000
    H14      H        0.77750    0.36510    0.06480    1.000
    C14      C        0.74040    0.37670    0.99730    1.000
    O13      O        0.73560    0.33270    0.97690    1.000
    O14      O        0.74110    0.41620    0.96990    1.000
    C15      C        0.74670    0.88250    0.55360    1.000
    H15      H        0.71770    0.86740    0.57120    1.000
    H16      H        0.77750    0.86510    0.56480    1.000
    C16      C        0.74040    0.87670    0.49730    1.000
    O15      O        0.73560    0.83270    0.47690    1.000
    O16      O        0.74110    0.91620    0.46990    1.000
    C17      C        0.74670    0.86750    0.19640    1.000
    H17      H        0.71770    0.88260    0.17880    1.000
    H18      H        0.77750    0.88490    0.18520    1.000
    C18      C        0.74040    0.87330    0.25270    1.000
    O17      O        0.73560    0.91730    0.27310    1.000
    O18      O        0.74110    0.83380    0.28010    1.000
    C19      C        0.74670    0.36750    0.69640    1.000
    H19      H        0.71770    0.38260    0.67880    1.000
    H20      H        0.77750    0.38490    0.68520    1.000
    C20      C        0.74040    0.37330    0.75270    1.000
    O19      O        0.73560    0.41730    0.77310    1.000
    O20      O        0.74110    0.33380    0.78010    1.000
    C21      C        0.24670    0.86750    0.69640    1.000
    H21      H        0.21770    0.88260    0.67880    1.000
    H22      H        0.27750    0.88490    0.68520    1.000
    C22      C        0.24040    0.87330    0.75270    1.000
    O21      O        0.23560    0.91730    0.77310    1.000
    O22      O        0.24110    0.83380    0.78010    1.000
    C23      C        0.24670    0.36750    0.19640    1.000
    H23      H        0.21770    0.38260    0.17880    1.000
    H24      H        0.27750    0.38490    0.18520    1.000
    C24      C        0.24040    0.37330    0.25270    1.000
    O23      O        0.23560    0.41730    0.27310    1.000
    O24      O        0.24110    0.33380    0.28010    1.000
    C25      C        0.50330    0.88250    0.69640    1.000
    H25      H        0.53230    0.86740    0.67880    1.000
    H26      H        0.47250    0.86510    0.68520    1.000
    C26      C        0.50960    0.87670    0.75270    1.000
    O25      O        0.51440    0.83270    0.77310    1.000
    O26      O        0.50890    0.91620    0.78010    1.000
    C27      C        0.50330    0.38250    0.19640    1.000
    H27      H        0.53230    0.36740    0.17880    1.000
    H28      H        0.47250    0.36510    0.18520    1.000
    C28      C        0.50960    0.37670    0.25270    1.000
    O27      O        0.51440    0.33270    0.27310    1.000
    O28      O        0.50890    0.41620    0.28010    1.000
    C29      C        0.00330    0.88250    0.19640    1.000
    H29      H        0.03230    0.86740    0.17880    1.000
    H30      H        0.97250    0.86510    0.18520    1.000
    C30      C        0.00960    0.87670    0.25270    1.000
    O29      O        0.01440    0.83270    0.27310    1.000
    O30      O        0.00890    0.91620    0.28010    1.000
    C31      C        0.00330    0.38250    0.69640    1.000
    H31      H        0.03230    0.36740    0.67880    1.000
    H32      H        0.97250    0.36510    0.68520    1.000
    C32      C        0.00960    0.37670    0.75270    1.000
    O31      O        0.01440    0.33270    0.77310    1.000
    O32      O        0.00890    0.41620    0.78010    1.000
    C33      C        0.05360    0.00330    0.36750    1.000
    H33      H        0.07120    0.03230    0.38260    1.000
    H34      H        0.06480    0.97250    0.38490    1.000
    C34      C        0.99730    0.00960    0.37330    1.000
    O33      O        0.97690    0.01440    0.41730    1.000
    O34      O        0.96990    0.00890    0.33380    1.000
    C35      C        0.05360    0.50330    0.86750    1.000
    H35      H        0.07120    0.53230    0.88260    1.000
    H36      H        0.06480    0.47250    0.88490    1.000
    C36      C        0.99730    0.50960    0.87330    1.000
    O35      O        0.97690    0.51440    0.91730    1.000
    O36      O        0.96990    0.50890    0.83380    1.000
    C37      C        0.55360    0.00330    0.86750    1.000
    H37      H        0.57120    0.03230    0.88260    1.000
    H38      H        0.56480    0.97250    0.88490    1.000
    C38      C        0.49730    0.00960    0.87330    1.000
    O37      O        0.47690    0.01440    0.91730    1.000
    O38      O        0.46990    0.00890    0.83380    1.000
    C39      C        0.55360    0.50330    0.36750    1.000
    H39      H        0.57120    0.53230    0.38260    1.000
    H40      H        0.56480    0.47250    0.38490    1.000
    C40      C        0.49730    0.50960    0.37330    1.000
    O39      O        0.47690    0.51440    0.41730    1.000
    O40      O        0.46990    0.50890    0.33380    1.000
    C41      C        0.55360    0.24670    0.38250    1.000
    H41      H        0.57120    0.21770    0.36740    1.000
    H42      H        0.56480    0.27750    0.36510    1.000
    C42      C        0.49730    0.24040    0.37670    1.000
    O41      O        0.47690    0.23560    0.33270    1.000
    O42      O        0.46990    0.24110    0.41620    1.000
    C43      C        0.55360    0.74670    0.88250    1.000
    H43      H        0.57120    0.71770    0.86740    1.000
    H44      H        0.56480    0.77750    0.86510    1.000
    C44      C        0.49730    0.74040    0.87670    1.000
    O43      O        0.47690    0.73560    0.83270    1.000
    O44      O        0.46990    0.74110    0.91620    1.000
    C45      C        0.05360    0.24670    0.88250    1.000
    H45      H        0.07120    0.21770    0.86740    1.000
    H46      H        0.06480    0.27750    0.86510    1.000
    C46      C        0.99730    0.24040    0.87670    1.000
    O45      O        0.97690    0.23560    0.83270    1.000
    O46      O        0.96990    0.24110    0.91620    1.000
    C47      C        0.05360    0.74670    0.38250    1.000
    H47      H        0.07120    0.71770    0.36740    1.000
    H48      H        0.06480    0.77750    0.36510    1.000
    C48      C        0.99730    0.74040    0.37670    1.000
    O47      O        0.97690    0.73560    0.33270    1.000
    O48      O        0.96990    0.74110    0.41620    1.000
    C49      C        0.19640    0.74670    0.86750    1.000
    H49      H        0.17880    0.71770    0.88260    1.000
    H50      H        0.18520    0.77750    0.88490    1.000
    C50      C        0.25270    0.74040    0.87330    1.000
    O49      O        0.27310    0.73560    0.91730    1.000
    O50      O        0.28010    0.74110    0.83380    1.000
    C51      C        0.19640    0.24670    0.36750    1.000
    H51      H        0.17880    0.21770    0.38260    1.000
    H52      H        0.18520    0.27750    0.38490    1.000
    C52      C        0.25270    0.24040    0.37330    1.000
    O51      O        0.27310    0.23560    0.41730    1.000
    O52      O        0.28010    0.24110    0.33380    1.000
    C53      C        0.69640    0.74670    0.36750    1.000
    H53      H        0.67880    0.71770    0.38260    1.000
    H54      H        0.68520    0.77750    0.38490    1.000
    C54      C        0.75270    0.74040    0.37330    1.000
    O53      O        0.77310    0.73560    0.41730    1.000
    O54      O        0.78010    0.74110    0.33380    1.000
    C55      C        0.69640    0.24670    0.86750    1.000
    H55      H        0.67880    0.21770    0.88260    1.000
    H56      H        0.68520    0.27750    0.88490    1.000
    C56      C        0.75270    0.24040    0.87330    1.000
    O55      O        0.77310    0.23560    0.91730    1.000
    O56      O        0.78010    0.24110    0.83380    1.000
    C57      C        0.69640    0.50330    0.88250    1.000
    H57      H        0.67880    0.53230    0.86740    1.000
    H58      H        0.68520    0.47250    0.86510    1.000
    C58      C        0.75270    0.50960    0.87670    1.000
    O57      O        0.77310    0.51440    0.83270    1.000
    O58      O        0.78010    0.50890    0.91620    1.000
    C59      C        0.69640    0.00330    0.38250    1.000
    H59      H        0.67880    0.03230    0.36740    1.000
    H60      H        0.68520    0.97250    0.36510    1.000
    C60      C        0.75270    0.00960    0.37670    1.000
    O59      O        0.77310    0.01440    0.33270    1.000
    O60      O        0.78010    0.00890    0.41620    1.000
    C61      C        0.19640    0.50330    0.38250    1.000
    H61      H        0.17880    0.53230    0.36740    1.000
    H62      H        0.18520    0.47250    0.36510    1.000
    C62      C        0.25270    0.50960    0.37670    1.000
    O61      O        0.27310    0.51440    0.33270    1.000
    O62      O        0.28010    0.50890    0.41620    1.000
    C63      C        0.19640    0.00330    0.88250    1.000
    H63      H        0.17880    0.03230    0.86740    1.000
    H64      H        0.18520    0.97250    0.86510    1.000
    C64      C        0.25270    0.00960    0.87670    1.000
    O63      O        0.27310    0.01440    0.83270    1.000
    O64      O        0.28010    0.00890    0.91620    1.000
    C65      C        0.36750    0.05360    0.00330    1.000
    H65      H        0.38260    0.07120    0.03230    1.000
    H66      H        0.38490    0.06480    0.97250    1.000
    C66      C        0.37330    0.99730    0.00960    1.000
    O65      O        0.41730    0.97690    0.01440    1.000
    O66      O        0.33380    0.96990    0.00890    1.000
    C67      C        0.36750    0.55360    0.50330    1.000
    H67      H        0.38260    0.57120    0.53230    1.000
    H68      H        0.38490    0.56480    0.47250    1.000
    C68      C        0.37330    0.49730    0.50960    1.000
    O67      O        0.41730    0.47690    0.51440    1.000
    O68      O        0.33380    0.46990    0.50890    1.000
    C69      C        0.86750    0.05360    0.50330    1.000
    H69      H        0.88260    0.07120    0.53230    1.000
    H70      H        0.88490    0.06480    0.47250    1.000
    C70      C        0.87330    0.99730    0.50960    1.000
    O69      O        0.91730    0.97690    0.51440    1.000
    O70      O        0.83380    0.96990    0.50890    1.000
    C71      C        0.86750    0.55360    0.00330    1.000
    H71      H        0.88260    0.57120    0.03230    1.000
    H72      H        0.88490    0.56480    0.97250    1.000
    C72      C        0.87330    0.49730    0.00960    1.000
    O71      O        0.91730    0.47690    0.01440    1.000
    O72      O        0.83380    0.46990    0.00890    1.000
    C73      C        0.38250    0.55360    0.24670    1.000
    H73      H        0.36740    0.57120    0.21770    1.000
    H74      H        0.36510    0.56480    0.27750    1.000
    C74      C        0.37670    0.49730    0.24040    1.000
    O73      O        0.33270    0.47690    0.23560    1.000
    O74      O        0.41620    0.46990    0.24110    1.000
    C75      C        0.38250    0.05360    0.74670    1.000
    H75      H        0.36740    0.07120    0.71770    1.000
    H76      H        0.36510    0.06480    0.77750    1.000
    C76      C        0.37670    0.99730    0.74040    1.000
    O75      O        0.33270    0.97690    0.73560    1.000
    O76      O        0.41620    0.96990    0.74110    1.000
    C77      C        0.88250    0.55360    0.74670    1.000
    H77      H        0.86740    0.57120    0.71770    1.000
    H78      H        0.86510    0.56480    0.77750    1.000
    C78      C        0.87670    0.49730    0.74040    1.000
    O77      O        0.83270    0.47690    0.73560    1.000
    O78      O        0.91620    0.46990    0.74110    1.000
    C79      C        0.88250    0.05360    0.24670    1.000
    H79      H        0.86740    0.07120    0.21770    1.000
    H80      H        0.86510    0.06480    0.27750    1.000
    C80      C        0.87670    0.99730    0.24040    1.000
    O79      O        0.83270    0.97690    0.23560    1.000
    O80      O        0.91620    0.96990    0.24110    1.000
    C81      C        0.86750    0.19640    0.74670    1.000
    H81      H        0.88260    0.17880    0.71770    1.000
    H82      H        0.88490    0.18520    0.77750    1.000
    C82      C        0.87330    0.25270    0.74040    1.000
    O81      O        0.91730    0.27310    0.73560    1.000
    O82      O        0.83380    0.28010    0.74110    1.000
    C83      C        0.86750    0.69640    0.24670    1.000
    H83      H        0.88260    0.67880    0.21770    1.000
    H84      H        0.88490    0.68520    0.27750    1.000
    C84      C        0.87330    0.75270    0.24040    1.000
    O83      O        0.91730    0.77310    0.23560    1.000
    O84      O        0.83380    0.78010    0.24110    1.000
    C85      C        0.36750    0.19640    0.24670    1.000
    H85      H        0.38260    0.17880    0.21770    1.000
    H86      H        0.38490    0.18520    0.27750    1.000
    C86      C        0.37330    0.25270    0.24040    1.000
    O85      O        0.41730    0.27310    0.23560    1.000
    O86      O        0.33380    0.28010    0.24110    1.000
    C87      C        0.36750    0.69640    0.74670    1.000
    H87      H        0.38260    0.67880    0.71770    1.000
    H88      H        0.38490    0.68520    0.77750    1.000
    C88      C        0.37330    0.75270    0.74040    1.000
    O87      O        0.41730    0.77310    0.73560    1.000
    O88      O        0.33380    0.78010    0.74110    1.000
    C89      C        0.88250    0.69640    0.50330    1.000
    H89      H        0.86740    0.67880    0.53230    1.000
    H90      H        0.86510    0.68520    0.47250    1.000
    C90      C        0.87670    0.75270    0.50960    1.000
    O89      O        0.83270    0.77310    0.51440    1.000
    O90      O        0.91620    0.78010    0.50890    1.000
    C91      C        0.88250    0.19640    0.00330    1.000
    H91      H        0.86740    0.17880    0.03230    1.000
    H92      H        0.86510    0.18520    0.97250    1.000
    C92      C        0.87670    0.25270    0.00960    1.000
    O91      O        0.83270    0.27310    0.01440    1.000
    O92      O        0.91620    0.28010    0.00890    1.000
    C93      C        0.38250    0.69640    0.00330    1.000
    H93      H        0.36740    0.67880    0.03230    1.000
    H94      H        0.36510    0.68520    0.97250    1.000
    C94      C        0.37670    0.75270    0.00960    1.000
    O93      O        0.33270    0.77310    0.01440    1.000
    O94      O        0.41620    0.78010    0.00890    1.000
    C95      C        0.38250    0.19640    0.50330    1.000
    H95      H        0.36740    0.17880    0.53230    1.000
    H96      H        0.36510    0.18520    0.47250    1.000
    C96      C        0.37670    0.25270    0.50960    1.000
    O95      O        0.33270    0.27310    0.51440    1.000
    O96      O        0.41620    0.28010    0.50890    1.000
    C97      C        0.11750    0.25330    0.94640    1.000
    H97      H        0.13260    0.28230    0.92880    1.000
    H98      H        0.13490    0.22250    0.93520    1.000
    C98      C        0.12330    0.25960    0.00270    1.000
    O97      O        0.16730    0.26440    0.02310    1.000
    O98      O        0.08380    0.25890    0.03010    1.000
    C99      C        0.11750    0.75330    0.44640    1.000
    H99      H        0.13260    0.78230    0.42880    1.000
    H100     H        0.13490    0.72250    0.43520    1.000
    C100     C        0.12330    0.75960    0.50270    1.000
    O99      O        0.16730    0.76440    0.52310    1.000
    O100     O        0.08380    0.75890    0.53010    1.000
    C101     C        0.61750    0.25330    0.44640    1.000
    H101     H        0.63260    0.28230    0.42880    1.000
    H102     H        0.63490    0.22250    0.43520    1.000
    C102     C        0.62330    0.25960    0.50270    1.000
    O101     O        0.66730    0.26440    0.52310    1.000
    O102     O        0.58380    0.25890    0.53010    1.000
    C103     C        0.61750    0.75330    0.94640    1.000
    H103     H        0.63260    0.78230    0.92880    1.000
    H104     H        0.63490    0.72250    0.93520    1.000
    C104     C        0.62330    0.75960    0.00270    1.000
    O103     O        0.66730    0.76440    0.02310    1.000
    O104     O        0.58380    0.75890    0.03010    1.000
    C105     C        0.13250    0.49670    0.44640    1.000
    H105     H        0.11740    0.46770    0.42880    1.000
    H106     H        0.11510    0.52750    0.43520    1.000
    C106     C        0.12670    0.49040    0.50270    1.000
    O105     O        0.08270    0.48560    0.52310    1.000
    O106     O        0.16620    0.49110    0.53010    1.000
    C107     C        0.13250    0.99670    0.94640    1.000
    H107     H        0.11740    0.96770    0.92880    1.000
    H108     H        0.11510    0.02750    0.93520    1.000
    C108     C        0.12670    0.99040    0.00270    1.000
    O107     O        0.08270    0.98560    0.02310    1.000
    O108     O        0.16620    0.99110    0.03010    1.000
    C109     C        0.63250    0.49670    0.94640    1.000
    H109     H        0.61740    0.46770    0.92880    1.000
    H110     H        0.61510    0.52750    0.93520    1.000
    C110     C        0.62670    0.49040    0.00270    1.000
    O109     O        0.58270    0.48560    0.02310    1.000
    O110     O        0.66620    0.49110    0.03010    1.000
    C111     C        0.63250    0.99670    0.44640    1.000
    H111     H        0.61740    0.96770    0.42880    1.000
    H112     H        0.61510    0.02750    0.43520    1.000
    C112     C        0.62670    0.99040    0.50270    1.000
    O111     O        0.58270    0.98560    0.52310    1.000
    O112     O        0.66620    0.99110    0.53010    1.000
    C113     C        0.61750    0.99670    0.80360    1.000
    H113     H        0.63260    0.96770    0.82120    1.000
    H114     H        0.63490    0.02750    0.81480    1.000
    C114     C        0.62330    0.99040    0.74730    1.000
    O113     O        0.66730    0.98560    0.72690    1.000
    O114     O        0.58380    0.99110    0.71990    1.000
    C115     C        0.61750    0.49670    0.30360    1.000
    H115     H        0.63260    0.46770    0.32120    1.000
    H116     H        0.63490    0.52750    0.31480    1.000
    C116     C        0.62330    0.49040    0.24730    1.000
    O115     O        0.66730    0.48560    0.22690    1.000
    O116     O        0.58380    0.49110    0.21990    1.000
    C117     C        0.11750    0.99670    0.30360    1.000
    H117     H        0.13260    0.96770    0.32120    1.000
    H118     H        0.13490    0.02750    0.31480    1.000
    C118     C        0.12330    0.99040    0.24730    1.000
    O117     O        0.16730    0.98560    0.22690    1.000
    O118     O        0.08380    0.99110    0.21990    1.000
    C119     C        0.11750    0.49670    0.80360    1.000
    H119     H        0.13260    0.46770    0.82120    1.000
    H120     H        0.13490    0.52750    0.81480    1.000
    C120     C        0.12330    0.49040    0.74730    1.000
    O119     O        0.16730    0.48560    0.72690    1.000
    O120     O        0.08380    0.49110    0.71990    1.000
    C121     C        0.63250    0.75330    0.30360    1.000
    H121     H        0.61740    0.78230    0.32120    1.000
    H122     H        0.61510    0.72250    0.31480    1.000
    C122     C        0.62670    0.75960    0.24730    1.000
    O121     O        0.58270    0.76440    0.22690    1.000
    O122     O        0.66620    0.75890    0.21990    1.000
    C123     C        0.63250    0.25330    0.80360    1.000
    H123     H        0.61740    0.28230    0.82120    1.000
    H124     H        0.61510    0.22250    0.81480    1.000
    C124     C        0.62670    0.25960    0.74730    1.000
    O123     O        0.58270    0.26440    0.72690    1.000
    O124     O        0.66620    0.25890    0.71990    1.000
    C125     C        0.13250    0.75330    0.80360    1.000
    H125     H        0.11740    0.78230    0.82120    1.000
    H126     H        0.11510    0.72250    0.81480    1.000
    C126     C        0.12670    0.75960    0.74730    1.000
    O125     O        0.08270    0.76440    0.72690    1.000
    O126     O        0.16620    0.75890    0.71990    1.000
    C127     C        0.13250    0.25330    0.30360    1.000
    H127     H        0.11740    0.28230    0.32120    1.000
    H128     H        0.11510    0.22250    0.31480    1.000
    C128     C        0.12670    0.25960    0.24730    1.000
    O127     O        0.08270    0.26440    0.22690    1.000
    O128     O        0.16620    0.25890    0.21990    1.000
    C129     C        0.75330    0.30360    0.63250    1.000
    H129     H        0.78230    0.32120    0.61740    1.000
    H130     H        0.72250    0.31480    0.61510    1.000
    C130     C        0.75960    0.24730    0.62670    1.000
    O129     O        0.76440    0.22690    0.58270    1.000
    O130     O        0.75890    0.21990    0.66620    1.000
    C131     C        0.75330    0.80360    0.13250    1.000
    H131     H        0.78230    0.82120    0.11740    1.000
    H132     H        0.72250    0.81480    0.11510    1.000
    C132     C        0.75960    0.74730    0.12670    1.000
    O131     O        0.76440    0.72690    0.08270    1.000
    O132     O        0.75890    0.71990    0.16620    1.000
    C133     C        0.25330    0.30360    0.13250    1.000
    H133     H        0.28230    0.32120    0.11740    1.000
    H134     H        0.22250    0.31480    0.11510    1.000
    C134     C        0.25960    0.24730    0.12670    1.000
    O133     O        0.26440    0.22690    0.08270    1.000
    O134     O        0.25890    0.21990    0.16620    1.000
    C135     C        0.25330    0.80360    0.63250    1.000
    H135     H        0.28230    0.82120    0.61740    1.000
    H136     H        0.22250    0.81480    0.61510    1.000
    C136     C        0.25960    0.74730    0.62670    1.000
    O135     O        0.26440    0.72690    0.58270    1.000
    O136     O        0.25890    0.71990    0.66620    1.000
    C137     C        0.99670    0.80360    0.61750    1.000
    H137     H        0.96770    0.82120    0.63260    1.000
    H138     H        0.02750    0.81480    0.63490    1.000
    C138     C        0.99040    0.74730    0.62330    1.000
    O137     O        0.98560    0.72690    0.66730    1.000
    O138     O        0.99110    0.71990    0.58380    1.000
    C139     C        0.99670    0.30360    0.11750    1.000
    H139     H        0.96770    0.32120    0.13260    1.000
    H140     H        0.02750    0.31480    0.13490    1.000
    C140     C        0.99040    0.24730    0.12330    1.000
    O139     O        0.98560    0.22690    0.16730    1.000
    O140     O        0.99110    0.21990    0.08380    1.000
    C141     C        0.49670    0.80360    0.11750    1.000
    H141     H        0.46770    0.82120    0.13260    1.000
    H142     H        0.52750    0.81480    0.13490    1.000
    C142     C        0.49040    0.74730    0.12330    1.000
    O141     O        0.48560    0.72690    0.16730    1.000
    O142     O        0.49110    0.71990    0.08380    1.000
    C143     C        0.49670    0.30360    0.61750    1.000
    H143     H        0.46770    0.32120    0.63260    1.000
    H144     H        0.52750    0.31480    0.63490    1.000
    C144     C        0.49040    0.24730    0.62330    1.000
    O143     O        0.48560    0.22690    0.66730    1.000
    O144     O        0.49110    0.21990    0.58380    1.000
    C145     C        0.49670    0.44640    0.13250    1.000
    H145     H        0.46770    0.42880    0.11740    1.000
    H146     H        0.52750    0.43520    0.11510    1.000
    C146     C        0.49040    0.50270    0.12670    1.000
    O145     O        0.48560    0.52310    0.08270    1.000
    O146     O        0.49110    0.53010    0.16620    1.000
    C147     C        0.49670    0.94640    0.63250    1.000
    H147     H        0.46770    0.92880    0.61740    1.000
    H148     H        0.52750    0.93520    0.61510    1.000
    C148     C        0.49040    0.00270    0.62670    1.000
    O147     O        0.48560    0.02310    0.58270    1.000
    O148     O        0.49110    0.03010    0.66620    1.000
    C149     C        0.99670    0.44640    0.63250    1.000
    H149     H        0.96770    0.42880    0.61740    1.000
    H150     H        0.02750    0.43520    0.61510    1.000
    C150     C        0.99040    0.50270    0.62670    1.000
    O149     O        0.98560    0.52310    0.58270    1.000
    O150     O        0.99110    0.53010    0.66620    1.000
    C151     C        0.99670    0.94640    0.13250    1.000
    H151     H        0.96770    0.92880    0.11740    1.000
    H152     H        0.02750    0.93520    0.11510    1.000
    C152     C        0.99040    0.00270    0.12670    1.000
    O151     O        0.98560    0.02310    0.08270    1.000
    O152     O        0.99110    0.03010    0.16620    1.000
    C153     C        0.25330    0.94640    0.11750    1.000
    H153     H        0.28230    0.92880    0.13260    1.000
    H154     H        0.22250    0.93520    0.13490    1.000
    C154     C        0.25960    0.00270    0.12330    1.000
    O153     O        0.26440    0.02310    0.16730    1.000
    O154     O        0.25890    0.03010    0.08380    1.000
    C155     C        0.25330    0.44640    0.61750    1.000
    H155     H        0.28230    0.42880    0.63260    1.000
    H156     H        0.22250    0.43520    0.63490    1.000
    C156     C        0.25960    0.50270    0.62330    1.000
    O155     O        0.26440    0.52310    0.66730    1.000
    O156     O        0.25890    0.53010    0.58380    1.000
    C157     C        0.75330    0.94640    0.61750    1.000
    H157     H        0.78230    0.92880    0.63260    1.000
    H158     H        0.72250    0.93520    0.63490    1.000
    C158     C        0.75960    0.00270    0.62330    1.000
    O157     O        0.76440    0.02310    0.66730    1.000
    O158     O        0.75890    0.03010    0.58380    1.000
    C159     C        0.75330    0.44640    0.11750    1.000
    H159     H        0.78230    0.42880    0.13260    1.000
    H160     H        0.72250    0.43520    0.13490    1.000
    C160     C        0.75960    0.50270    0.12330    1.000
    O159     O        0.76440    0.52310    0.16730    1.000
    O160     O        0.75890    0.53010    0.08380    1.000
    C161     C        0.80360    0.61750    0.99670    1.000
    H161     H        0.82120    0.63260    0.96770    1.000
    H162     H        0.81480    0.63490    0.02750    1.000
    C162     C        0.74730    0.62330    0.99040    1.000
    O161     O        0.72690    0.66730    0.98560    1.000
    O162     O        0.71990    0.58380    0.99110    1.000
    C163     C        0.80360    0.11750    0.49670    1.000
    H163     H        0.82120    0.13260    0.46770    1.000
    H164     H        0.81480    0.13490    0.52750    1.000
    C164     C        0.74730    0.12330    0.49040    1.000
    O163     O        0.72690    0.16730    0.48560    1.000
    O164     O        0.71990    0.08380    0.49110    1.000
    C165     C        0.30360    0.61750    0.49670    1.000
    H165     H        0.32120    0.63260    0.46770    1.000
    H166     H        0.31480    0.63490    0.52750    1.000
    C166     C        0.24730    0.62330    0.49040    1.000
    O165     O        0.22690    0.66730    0.48560    1.000
    O166     O        0.21990    0.58380    0.49110    1.000
    C167     C        0.30360    0.11750    0.99670    1.000
    H167     H        0.32120    0.13260    0.96770    1.000
    H168     H        0.31480    0.13490    0.02750    1.000
    C168     C        0.24730    0.12330    0.99040    1.000
    O167     O        0.22690    0.16730    0.98560    1.000
    O168     O        0.21990    0.08380    0.99110    1.000
    C169     C        0.30360    0.63250    0.75330    1.000
    H169     H        0.32120    0.61740    0.78230    1.000
    H170     H        0.31480    0.61510    0.72250    1.000
    C170     C        0.24730    0.62670    0.75960    1.000
    O169     O        0.22690    0.58270    0.76440    1.000
    O170     O        0.21990    0.66620    0.75890    1.000
    C171     C        0.30360    0.13250    0.25330    1.000
    H171     H        0.32120    0.11740    0.28230    1.000
    H172     H        0.31480    0.11510    0.22250    1.000
    C172     C        0.24730    0.12670    0.25960    1.000
    O171     O        0.22690    0.08270    0.26440    1.000
    O172     O        0.21990    0.16620    0.25890    1.000
    C173     C        0.80360    0.63250    0.25330    1.000
    H173     H        0.82120    0.61740    0.28230    1.000
    H174     H        0.81480    0.61510    0.22250    1.000
    C174     C        0.74730    0.62670    0.25960    1.000
    O173     O        0.72690    0.58270    0.26440    1.000
    O174     O        0.71990    0.66620    0.25890    1.000
    C175     C        0.80360    0.13250    0.75330    1.000
    H175     H        0.82120    0.11740    0.78230    1.000
    H176     H        0.81480    0.11510    0.72250    1.000
    C176     C        0.74730    0.12670    0.75960    1.000
    O175     O        0.72690    0.08270    0.76440    1.000
    O176     O        0.71990    0.16620    0.75890    1.000
    C177     C        0.94640    0.11750    0.25330    1.000
    H177     H        0.92880    0.13260    0.28230    1.000
    H178     H        0.93520    0.13490    0.22250    1.000
    C178     C        0.00270    0.12330    0.25960    1.000
    O177     O        0.02310    0.16730    0.26440    1.000
    O178     O        0.03010    0.08380    0.25890    1.000
    C179     C        0.94640    0.61750    0.75330    1.000
    H179     H        0.92880    0.63260    0.78230    1.000
    H180     H        0.93520    0.63490    0.72250    1.000
    C180     C        0.00270    0.62330    0.75960    1.000
    O179     O        0.02310    0.66730    0.76440    1.000
    O180     O        0.03010    0.58380    0.75890    1.000
    C181     C        0.44640    0.11750    0.75330    1.000
    H181     H        0.42880    0.13260    0.78230    1.000
    H182     H        0.43520    0.13490    0.72250    1.000
    C182     C        0.50270    0.12330    0.75960    1.000
    O181     O        0.52310    0.16730    0.76440    1.000
    O182     O        0.53010    0.08380    0.75890    1.000
    C183     C        0.44640    0.61750    0.25330    1.000
    H183     H        0.42880    0.63260    0.28230    1.000
    H184     H        0.43520    0.63490    0.22250    1.000
    C184     C        0.50270    0.62330    0.25960    1.000
    O183     O        0.52310    0.66730    0.26440    1.000
    O184     O        0.53010    0.58380    0.25890    1.000
    C185     C        0.44640    0.13250    0.49670    1.000
    H185     H        0.42880    0.11740    0.46770    1.000
    H186     H        0.43520    0.11510    0.52750    1.000
    C186     C        0.50270    0.12670    0.49040    1.000
    O185     O        0.52310    0.08270    0.48560    1.000
    O186     O        0.53010    0.16620    0.49110    1.000
    C187     C        0.44640    0.63250    0.99670    1.000
    H187     H        0.42880    0.61740    0.96770    1.000
    H188     H        0.43520    0.61510    0.02750    1.000
    C188     C        0.50270    0.62670    0.99040    1.000
    O187     O        0.52310    0.58270    0.98560    1.000
    O188     O        0.53010    0.66620    0.99110    1.000
    C189     C        0.94640    0.13250    0.99670    1.000
    H189     H        0.92880    0.11740    0.96770    1.000
    H190     H        0.93520    0.11510    0.02750    1.000
    C190     C        0.00270    0.12670    0.99040    1.000
    O189     O        0.02310    0.08270    0.98560    1.000
    O190     O        0.03010    0.16620    0.99110    1.000
    C191     C        0.94640    0.63250    0.49670    1.000
    H191     H        0.92880    0.61740    0.46770    1.000
    H192     H        0.93520    0.61510    0.52750    1.000
    C192     C        0.00270    0.62670    0.49040    1.000
    O191     O        0.02310    0.58270    0.48560    1.000
    O192     O        0.03010    0.66620    0.49110    1.000
    C193     C        0.99670    0.63250    0.94640    1.000
    H193     H        0.96770    0.61740    0.92880    1.000
    H194     H        0.02750    0.61510    0.93520    1.000
    C194     C        0.99040    0.62670    0.00270    1.000
    O193     O        0.98560    0.58270    0.02310    1.000
    O194     O        0.99110    0.66620    0.03010    1.000
    C195     C        0.99670    0.13250    0.44640    1.000
    H195     H        0.96770    0.11740    0.42880    1.000
    H196     H        0.02750    0.11510    0.43520    1.000
    C196     C        0.99040    0.12670    0.50270    1.000
    O195     O        0.98560    0.08270    0.52310    1.000
    O196     O        0.99110    0.16620    0.53010    1.000
    C197     C        0.49670    0.63250    0.44640    1.000
    H197     H        0.46770    0.61740    0.42880    1.000
    H198     H        0.52750    0.61510    0.43520    1.000
    C198     C        0.49040    0.62670    0.50270    1.000
    O197     O        0.48560    0.58270    0.52310    1.000
    O198     O        0.49110    0.66620    0.53010    1.000
    C199     C        0.49670    0.13250    0.94640    1.000
    H199     H        0.46770    0.11740    0.92880    1.000
    H200     H        0.52750    0.11510    0.93520    1.000
    C200     C        0.49040    0.12670    0.00270    1.000
    O199     O        0.48560    0.08270    0.02310    1.000
    O200     O        0.49110    0.16620    0.03010    1.000
    C201     C        0.75330    0.61750    0.44640    1.000
    H201     H        0.78230    0.63260    0.42880    1.000
    H202     H        0.72250    0.63490    0.43520    1.000
    C202     C        0.75960    0.62330    0.50270    1.000
    O201     O        0.76440    0.66730    0.52310    1.000
    O202     O        0.75890    0.58380    0.53010    1.000
    C203     C        0.75330    0.11750    0.94640    1.000
    H203     H        0.78230    0.13260    0.92880    1.000
    H204     H        0.72250    0.13490    0.93520    1.000
    C204     C        0.75960    0.12330    0.00270    1.000
    O203     O        0.76440    0.16730    0.02310    1.000
    O204     O        0.75890    0.08380    0.03010    1.000
    C205     C        0.25330    0.61750    0.94640    1.000
    H205     H        0.28230    0.63260    0.92880    1.000
    H206     H        0.22250    0.63490    0.93520    1.000
    C206     C        0.25960    0.62330    0.00270    1.000
    O205     O        0.26440    0.66730    0.02310    1.000
    O206     O        0.25890    0.58380    0.03010    1.000
    C207     C        0.25330    0.11750    0.44640    1.000
    H207     H        0.28230    0.13260    0.42880    1.000
    H208     H        0.22250    0.13490    0.43520    1.000
    C208     C        0.25960    0.12330    0.50270    1.000
    O207     O        0.26440    0.16730    0.52310    1.000
    O208     O        0.25890    0.08380    0.53010    1.000
    C209     C        0.25330    0.13250    0.80360    1.000
    H209     H        0.28230    0.11740    0.82120    1.000
    H210     H        0.22250    0.11510    0.81480    1.000
    C210     C        0.25960    0.12670    0.74730    1.000
    O209     O        0.26440    0.08270    0.72690    1.000
    O210     O        0.25890    0.16620    0.71990    1.000
    C211     C        0.25330    0.63250    0.30360    1.000
    H211     H        0.28230    0.61740    0.32120    1.000
    H212     H        0.22250    0.61510    0.31480    1.000
    C212     C        0.25960    0.62670    0.24730    1.000
    O211     O        0.26440    0.58270    0.22690    1.000
    O212     O        0.25890    0.66620    0.21990    1.000
    C213     C        0.75330    0.13250    0.30360    1.000
    H213     H        0.78230    0.11740    0.32120    1.000
    H214     H        0.72250    0.11510    0.31480    1.000
    C214     C        0.75960    0.12670    0.24730    1.000
    O213     O        0.76440    0.08270    0.22690    1.000
    O214     O        0.75890    0.16620    0.21990    1.000
    C215     C        0.75330    0.63250    0.80360    1.000
    H215     H        0.78230    0.61740    0.82120    1.000
    H216     H        0.72250    0.61510    0.81480    1.000
    C216     C        0.75960    0.62670    0.74730    1.000
    O215     O        0.76440    0.58270    0.72690    1.000
    O216     O        0.75890    0.66620    0.71990    1.000
    C217     C        0.49670    0.11750    0.30360    1.000
    H217     H        0.46770    0.13260    0.32120    1.000
    H218     H        0.52750    0.13490    0.31480    1.000
    C218     C        0.49040    0.12330    0.24730    1.000
    O217     O        0.48560    0.16730    0.22690    1.000
    O218     O        0.49110    0.08380    0.21990    1.000
    C219     C        0.49670    0.61750    0.80360    1.000
    H219     H        0.46770    0.63260    0.82120    1.000
    H220     H        0.52750    0.63490    0.81480    1.000
    C220     C        0.49040    0.62330    0.74730    1.000
    O219     O        0.48560    0.66730    0.72690    1.000
    O220     O        0.49110    0.58380    0.71990    1.000
    C221     C        0.99670    0.11750    0.80360    1.000
    H221     H        0.96770    0.13260    0.82120    1.000
    H222     H        0.02750    0.13490    0.81480    1.000
    C222     C        0.99040    0.12330    0.74730    1.000
    O221     O        0.98560    0.16730    0.72690    1.000
    O222     O        0.99110    0.08380    0.71990    1.000
    C223     C        0.99670    0.61750    0.30360    1.000
    H223     H        0.96770    0.63260    0.32120    1.000
    H224     H        0.02750    0.63490    0.31480    1.000
    C224     C        0.99040    0.62330    0.24730    1.000
    O223     O        0.98560    0.66730    0.22690    1.000
    O224     O        0.99110    0.58380    0.21990    1.000
    C225     C        0.94640    0.99670    0.63250    1.000
    H225     H        0.92880    0.96770    0.61740    1.000
    H226     H        0.93520    0.02750    0.61510    1.000
    C226     C        0.00270    0.99040    0.62670    1.000
    O225     O        0.02310    0.98560    0.58270    1.000
    O226     O        0.03010    0.99110    0.66620    1.000
    C227     C        0.94640    0.49670    0.13250    1.000
    H227     H        0.92880    0.46770    0.11740    1.000
    H228     H        0.93520    0.52750    0.11510    1.000
    C228     C        0.00270    0.49040    0.12670    1.000
    O227     O        0.02310    0.48560    0.08270    1.000
    O228     O        0.03010    0.49110    0.16620    1.000
    C229     C        0.44640    0.99670    0.13250    1.000
    H229     H        0.42880    0.96770    0.11740    1.000
    H230     H        0.43520    0.02750    0.11510    1.000
    C230     C        0.50270    0.99040    0.12670    1.000
    O229     O        0.52310    0.98560    0.08270    1.000
    O230     O        0.53010    0.99110    0.16620    1.000
    C231     C        0.44640    0.49670    0.63250    1.000
    H231     H        0.42880    0.46770    0.61740    1.000
    H232     H        0.43520    0.52750    0.61510    1.000
    C232     C        0.50270    0.49040    0.62670    1.000
    O231     O        0.52310    0.48560    0.58270    1.000
    O232     O        0.53010    0.49110    0.66620    1.000
    C233     C        0.44640    0.75330    0.61750    1.000
    H233     H        0.42880    0.78230    0.63260    1.000
    H234     H        0.43520    0.72250    0.63490    1.000
    C234     C        0.50270    0.75960    0.62330    1.000
    O233     O        0.52310    0.76440    0.66730    1.000
    O234     O        0.53010    0.75890    0.58380    1.000
    C235     C        0.44640    0.25330    0.11750    1.000
    H235     H        0.42880    0.28230    0.13260    1.000
    H236     H        0.43520    0.22250    0.13490    1.000
    C236     C        0.50270    0.25960    0.12330    1.000
    O235     O        0.52310    0.26440    0.16730    1.000
    O236     O        0.53010    0.25890    0.08380    1.000
    C237     C        0.94640    0.75330    0.11750    1.000
    H237     H        0.92880    0.78230    0.13260    1.000
    H238     H        0.93520    0.72250    0.13490    1.000
    C238     C        0.00270    0.75960    0.12330    1.000
    O237     O        0.02310    0.76440    0.16730    1.000
    O238     O        0.03010    0.75890    0.08380    1.000
    C239     C        0.94640    0.25330    0.61750    1.000
    H239     H        0.92880    0.28230    0.63260    1.000
    H240     H        0.93520    0.22250    0.63490    1.000
    C240     C        0.00270    0.25960    0.62330    1.000
    O239     O        0.02310    0.26440    0.66730    1.000
    O240     O        0.03010    0.25890    0.58380    1.000
    C241     C        0.80360    0.25330    0.13250    1.000
    H241     H        0.82120    0.28230    0.11740    1.000
    H242     H        0.81480    0.22250    0.11510    1.000
    C242     C        0.74730    0.25960    0.12670    1.000
    O241     O        0.72690    0.26440    0.08270    1.000
    O242     O        0.71990    0.25890    0.16620    1.000
    C243     C        0.80360    0.75330    0.63250    1.000
    H243     H        0.82120    0.78230    0.61740    1.000
    H244     H        0.81480    0.72250    0.61510    1.000
    C244     C        0.74730    0.75960    0.62670    1.000
    O243     O        0.72690    0.76440    0.58270    1.000
    O244     O        0.71990    0.75890    0.66620    1.000
    C245     C        0.30360    0.25330    0.63250    1.000
    H245     H        0.32120    0.28230    0.61740    1.000
    H246     H        0.31480    0.22250    0.61510    1.000
    C246     C        0.24730    0.25960    0.62670    1.000
    O245     O        0.22690    0.26440    0.58270    1.000
    O246     O        0.21990    0.25890    0.66620    1.000
    C247     C        0.30360    0.75330    0.13250    1.000
    H247     H        0.32120    0.78230    0.11740    1.000
    H248     H        0.31480    0.72250    0.11510    1.000
    C248     C        0.24730    0.75960    0.12670    1.000
    O247     O        0.22690    0.76440    0.08270    1.000
    O248     O        0.21990    0.75890    0.16620    1.000
    C249     C        0.30360    0.49670    0.11750    1.000
    H249     H        0.32120    0.46770    0.13260    1.000
    H250     H        0.31480    0.52750    0.13490    1.000
    C250     C        0.24730    0.49040    0.12330    1.000
    O249     O        0.22690    0.48560    0.16730    1.000
    O250     O        0.21990    0.49110    0.08380    1.000
    C251     C        0.30360    0.99670    0.61750    1.000
    H251     H        0.32120    0.96770    0.63260    1.000
    H252     H        0.31480    0.02750    0.63490    1.000
    C252     C        0.24730    0.99040    0.62330    1.000
    O251     O        0.22690    0.98560    0.66730    1.000
    O252     O        0.21990    0.99110    0.58380    1.000
    C253     C        0.80360    0.49670    0.61750    1.000
    H253     H        0.82120    0.46770    0.63260    1.000
    H254     H        0.81480    0.52750    0.63490    1.000
    C254     C        0.74730    0.49040    0.62330    1.000
    O253     O        0.72690    0.48560    0.66730    1.000
    O254     O        0.71990    0.49110    0.58380    1.000
    C255     C        0.80360    0.99670    0.11750    1.000
    H255     H        0.82120    0.96770    0.13260    1.000
    H256     H        0.81480    0.02750    0.13490    1.000
    C256     C        0.74730    0.99040    0.12330    1.000
    O255     O        0.72690    0.98560    0.16730    1.000
    O256     O        0.71990    0.99110    0.08380    1.000
    C257     C        0.63250    0.94640    0.99670    1.000
    H257     H        0.61740    0.92880    0.96770    1.000
    H258     H        0.61510    0.93520    0.02750    1.000
    C258     C        0.62670    0.00270    0.99040    1.000
    O257     O        0.58270    0.02310    0.98560    1.000
    O258     O        0.66620    0.03010    0.99110    1.000
    C259     C        0.63250    0.44640    0.49670    1.000
    H259     H        0.61740    0.42880    0.46770    1.000
    H260     H        0.61510    0.43520    0.52750    1.000
    C260     C        0.62670    0.50270    0.49040    1.000
    O259     O        0.58270    0.52310    0.48560    1.000
    O260     O        0.66620    0.53010    0.49110    1.000
    C261     C        0.13250    0.94640    0.49670    1.000
    H261     H        0.11740    0.92880    0.46770    1.000
    H262     H        0.11510    0.93520    0.52750    1.000
    C262     C        0.12670    0.00270    0.49040    1.000
    O261     O        0.08270    0.02310    0.48560    1.000
    O262     O        0.16620    0.03010    0.49110    1.000
    C263     C        0.13250    0.44640    0.99670    1.000
    H263     H        0.11740    0.42880    0.96770    1.000
    H264     H        0.11510    0.43520    0.02750    1.000
    C264     C        0.12670    0.50270    0.99040    1.000
    O263     O        0.08270    0.52310    0.98560    1.000
    O264     O        0.16620    0.53010    0.99110    1.000
    C265     C        0.61750    0.44640    0.75330    1.000
    H265     H        0.63260    0.42880    0.78230    1.000
    H266     H        0.63490    0.43520    0.72250    1.000
    C266     C        0.62330    0.50270    0.75960    1.000
    O265     O        0.66730    0.52310    0.76440    1.000
    O266     O        0.58380    0.53010    0.75890    1.000
    C267     C        0.61750    0.94640    0.25330    1.000
    H267     H        0.63260    0.92880    0.28230    1.000
    H268     H        0.63490    0.93520    0.22250    1.000
    C268     C        0.62330    0.00270    0.25960    1.000
    O267     O        0.66730    0.02310    0.26440    1.000
    O268     O        0.58380    0.03010    0.25890    1.000
    C269     C        0.11750    0.44640    0.25330    1.000
    H269     H        0.13260    0.42880    0.28230    1.000
    H270     H        0.13490    0.43520    0.22250    1.000
    C270     C        0.12330    0.50270    0.25960    1.000
    O269     O        0.16730    0.52310    0.26440    1.000
    O270     O        0.08380    0.53010    0.25890    1.000
    C271     C        0.11750    0.94640    0.75330    1.000
    H271     H        0.13260    0.92880    0.78230    1.000
    H272     H        0.13490    0.93520    0.72250    1.000
    C272     C        0.12330    0.00270    0.75960    1.000
    O271     O        0.16730    0.02310    0.76440    1.000
    O272     O        0.08380    0.03010    0.75890    1.000
    C273     C        0.13250    0.80360    0.25330    1.000
    H273     H        0.11740    0.82120    0.28230    1.000
    H274     H        0.11510    0.81480    0.22250    1.000
    C274     C        0.12670    0.74730    0.25960    1.000
    O273     O        0.08270    0.72690    0.26440    1.000
    O274     O        0.16620    0.71990    0.25890    1.000
    C275     C        0.13250    0.30360    0.75330    1.000
    H275     H        0.11740    0.32120    0.78230    1.000
    H276     H        0.11510    0.31480    0.72250    1.000
    C276     C        0.12670    0.24730    0.75960    1.000
    O275     O        0.08270    0.22690    0.76440    1.000
    O276     O        0.16620    0.21990    0.75890    1.000
    C277     C        0.63250    0.80360    0.75330    1.000
    H277     H        0.61740    0.82120    0.78230    1.000
    H278     H        0.61510    0.81480    0.72250    1.000
    C278     C        0.62670    0.74730    0.75960    1.000
    O277     O        0.58270    0.72690    0.76440    1.000
    O278     O        0.66620    0.71990    0.75890    1.000
    C279     C        0.63250    0.30360    0.25330    1.000
    H279     H        0.61740    0.32120    0.28230    1.000
    H280     H        0.61510    0.31480    0.22250    1.000
    C280     C        0.62670    0.24730    0.25960    1.000
    O279     O        0.58270    0.22690    0.26440    1.000
    O280     O        0.66620    0.21990    0.25890    1.000
    C281     C        0.11750    0.30360    0.49670    1.000
    H281     H        0.13260    0.32120    0.46770    1.000
    H282     H        0.13490    0.31480    0.52750    1.000
    C282     C        0.12330    0.24730    0.49040    1.000
    O281     O        0.16730    0.22690    0.48560    1.000
    O282     O        0.08380    0.21990    0.49110    1.000
    C283     C        0.11750    0.80360    0.99670    1.000
    H283     H        0.13260    0.82120    0.96770    1.000
    H284     H        0.13490    0.81480    0.02750    1.000
    C284     C        0.12330    0.74730    0.99040    1.000
    O283     O        0.16730    0.72690    0.98560    1.000
    O284     O        0.08380    0.71990    0.99110    1.000
    C285     C        0.61750    0.30360    0.99670    1.000
    H285     H        0.63260    0.32120    0.96770    1.000
    H286     H        0.63490    0.31480    0.02750    1.000
    C286     C        0.62330    0.24730    0.99040    1.000
    O285     O        0.66730    0.22690    0.98560    1.000
    O286     O        0.58380    0.21990    0.99110    1.000
    C287     C        0.61750    0.80360    0.49670    1.000
    H287     H        0.63260    0.82120    0.46770    1.000
    H288     H        0.63490    0.81480    0.52750    1.000
    C288     C        0.62330    0.74730    0.49040    1.000
    O287     O        0.66730    0.72690    0.48560    1.000
    O288     O        0.58380    0.71990    0.49110    1.000
    C289     C        0.88250    0.74670    0.05360    1.000
    H289     H        0.86740    0.71770    0.07120    1.000
    H290     H        0.86510    0.77750    0.06480    1.000
    C290     C        0.87670    0.74040    0.99730    1.000
    O289     O        0.83270    0.73560    0.97690    1.000
    O290     O        0.91620    0.74110    0.96990    1.000
    C291     C        0.88250    0.24670    0.55360    1.000
    H291     H        0.86740    0.21770    0.57120    1.000
    H292     H        0.86510    0.27750    0.56480    1.000
    C292     C        0.87670    0.24040    0.49730    1.000
    O291     O        0.83270    0.23560    0.47690    1.000
    O292     O        0.91620    0.24110    0.46990    1.000
    C293     C        0.38250    0.74670    0.55360    1.000
    H293     H        0.36740    0.71770    0.57120    1.000
    H294     H        0.36510    0.77750    0.56480    1.000
    C294     C        0.37670    0.74040    0.49730    1.000
    O293     O        0.33270    0.73560    0.47690    1.000
    O294     O        0.41620    0.74110    0.46990    1.000
    C295     C        0.38250    0.24670    0.05360    1.000
    H295     H        0.36740    0.21770    0.07120    1.000
    H296     H        0.36510    0.27750    0.06480    1.000
    C296     C        0.37670    0.24040    0.99730    1.000
    O295     O        0.33270    0.23560    0.97690    1.000
    O296     O        0.41620    0.24110    0.96990    1.000
    C297     C        0.86750    0.50330    0.55360    1.000
    H297     H        0.88260    0.53230    0.57120    1.000
    H298     H        0.88490    0.47250    0.56480    1.000
    C298     C        0.87330    0.50960    0.49730    1.000
    O297     O        0.91730    0.51440    0.47690    1.000
    O298     O        0.83380    0.50890    0.46990    1.000
    C299     C        0.86750    0.00330    0.05360    1.000
    H299     H        0.88260    0.03230    0.07120    1.000
    H300     H        0.88490    0.97250    0.06480    1.000
    C300     C        0.87330    0.00960    0.99730    1.000
    O299     O        0.91730    0.01440    0.97690    1.000
    O300     O        0.83380    0.00890    0.96990    1.000
    C301     C        0.36750    0.50330    0.05360    1.000
    H301     H        0.38260    0.53230    0.07120    1.000
    H302     H        0.38490    0.47250    0.06480    1.000
    C302     C        0.37330    0.50960    0.99730    1.000
    O301     O        0.41730    0.51440    0.97690    1.000
    O302     O        0.33380    0.50890    0.96990    1.000
    C303     C        0.36750    0.00330    0.55360    1.000
    H303     H        0.38260    0.03230    0.57120    1.000
    H304     H        0.38490    0.97250    0.56480    1.000
    C304     C        0.37330    0.00960    0.49730    1.000
    O303     O        0.41730    0.01440    0.47690    1.000
    O304     O        0.33380    0.00890    0.46990    1.000
    C305     C        0.38250    0.00330    0.19640    1.000
    H305     H        0.36740    0.03230    0.17880    1.000
    H306     H        0.36510    0.97250    0.18520    1.000
    C306     C        0.37670    0.00960    0.25270    1.000
    O305     O        0.33270    0.01440    0.27310    1.000
    O306     O        0.41620    0.00890    0.28010    1.000
    C307     C        0.38250    0.50330    0.69640    1.000
    H307     H        0.36740    0.53230    0.67880    1.000
    H308     H        0.36510    0.47250    0.68520    1.000
    C308     C        0.37670    0.50960    0.75270    1.000
    O307     O        0.33270    0.51440    0.77310    1.000
    O308     O        0.41620    0.50890    0.78010    1.000
    C309     C        0.88250    0.00330    0.69640    1.000
    H309     H        0.86740    0.03230    0.67880    1.000
    H310     H        0.86510    0.97250    0.68520    1.000
    C310     C        0.87670    0.00960    0.75270    1.000
    O309     O        0.83270    0.01440    0.77310    1.000
    O310     O        0.91620    0.00890    0.78010    1.000
    C311     C        0.88250    0.50330    0.19640    1.000
    H311     H        0.86740    0.53230    0.17880    1.000
    H312     H        0.86510    0.47250    0.18520    1.000
    C312     C        0.87670    0.50960    0.25270    1.000
    O311     O        0.83270    0.51440    0.27310    1.000
    O312     O        0.91620    0.50890    0.28010    1.000
    C313     C        0.36750    0.24670    0.69640    1.000
    H313     H        0.38260    0.21770    0.67880    1.000
    H314     H        0.38490    0.27750    0.68520    1.000
    C314     C        0.37330    0.24040    0.75270    1.000
    O313     O        0.41730    0.23560    0.77310    1.000
    O314     O        0.33380    0.24110    0.78010    1.000
    C315     C        0.36750    0.74670    0.19640    1.000
    H315     H        0.38260    0.71770    0.17880    1.000
    H316     H        0.38490    0.77750    0.18520    1.000
    C316     C        0.37330    0.74040    0.25270    1.000
    O315     O        0.41730    0.73560    0.27310    1.000
    O316     O        0.33380    0.74110    0.28010    1.000
    C317     C        0.86750    0.24670    0.19640    1.000
    H317     H        0.88260    0.21770    0.17880    1.000
    H318     H        0.88490    0.27750    0.18520    1.000
    C318     C        0.87330    0.24040    0.25270    1.000
    O317     O        0.91730    0.23560    0.27310    1.000
    O318     O        0.83380    0.24110    0.28010    1.000
    C319     C        0.86750    0.74670    0.69640    1.000
    H319     H        0.88260    0.71770    0.67880    1.000
    H320     H        0.88490    0.77750    0.68520    1.000
    C320     C        0.87330    0.74040    0.75270    1.000
    O319     O        0.91730    0.73560    0.77310    1.000
    O320     O        0.83380    0.74110    0.78010    1.000
    C321     C        0.24670    0.69640    0.36750    1.000
    H321     H        0.21770    0.67880    0.38260    1.000
    H322     H        0.27750    0.68520    0.38490    1.000
    C322     C        0.24040    0.75270    0.37330    1.000
    O321     O        0.23560    0.77310    0.41730    1.000
    O322     O        0.24110    0.78010    0.33380    1.000
    C323     C        0.24670    0.19640    0.86750    1.000
    H323     H        0.21770    0.17880    0.88260    1.000
    H324     H        0.27750    0.18520    0.88490    1.000
    C324     C        0.24040    0.25270    0.87330    1.000
    O323     O        0.23560    0.27310    0.91730    1.000
    O324     O        0.24110    0.28010    0.83380    1.000
    C325     C        0.74670    0.69640    0.86750    1.000
    H325     H        0.71770    0.67880    0.88260    1.000
    H326     H        0.77750    0.68520    0.88490    1.000
    C326     C        0.74040    0.75270    0.87330    1.000
    O325     O        0.73560    0.77310    0.91730    1.000
    O326     O        0.74110    0.78010    0.83380    1.000
    C327     C        0.74670    0.19640    0.36750    1.000
    H327     H        0.71770    0.17880    0.38260    1.000
    H328     H        0.77750    0.18520    0.38490    1.000
    C328     C        0.74040    0.25270    0.37330    1.000
    O327     O        0.73560    0.27310    0.41730    1.000
    O328     O        0.74110    0.28010    0.33380    1.000
    C329     C        0.00330    0.19640    0.38250    1.000
    H329     H        0.03230    0.17880    0.36740    1.000
    H330     H        0.97250    0.18520    0.36510    1.000
    C330     C        0.00960    0.25270    0.37670    1.000
    O329     O        0.01440    0.27310    0.33270    1.000
    O330     O        0.00890    0.28010    0.41620    1.000
    C331     C        0.00330    0.69640    0.88250    1.000
    H331     H        0.03230    0.67880    0.86740    1.000
    H332     H        0.97250    0.68520    0.86510    1.000
    C332     C        0.00960    0.75270    0.87670    1.000
    O331     O        0.01440    0.77310    0.83270    1.000
    O332     O        0.00890    0.78010    0.91620    1.000
    C333     C        0.50330    0.19640    0.88250    1.000
    H333     H        0.53230    0.17880    0.86740    1.000
    H334     H        0.47250    0.18520    0.86510    1.000
    C334     C        0.50960    0.25270    0.87670    1.000
    O333     O        0.51440    0.27310    0.83270    1.000
    O334     O        0.50890    0.28010    0.91620    1.000
    C335     C        0.50330    0.69640    0.38250    1.000
    H335     H        0.53230    0.67880    0.36740    1.000
    H336     H        0.47250    0.68520    0.36510    1.000
    C336     C        0.50960    0.75270    0.37670    1.000
    O335     O        0.51440    0.77310    0.33270    1.000
    O336     O        0.50890    0.78010    0.41620    1.000
    C337     C        0.50330    0.55360    0.86750    1.000
    H337     H        0.53230    0.57120    0.88260    1.000
    H338     H        0.47250    0.56480    0.88490    1.000
    C338     C        0.50960    0.49730    0.87330    1.000
    O337     O        0.51440    0.47690    0.91730    1.000
    O338     O        0.50890    0.46990    0.83380    1.000
    C339     C        0.50330    0.05360    0.36750    1.000
    H339     H        0.53230    0.07120    0.38260    1.000
    H340     H        0.47250    0.06480    0.38490    1.000
    C340     C        0.50960    0.99730    0.37330    1.000
    O339     O        0.51440    0.97690    0.41730    1.000
    O340     O        0.50890    0.96990    0.33380    1.000
    C341     C        0.00330    0.55360    0.36750    1.000
    H341     H        0.03230    0.57120    0.38260    1.000
    H342     H        0.97250    0.56480    0.38490    1.000
    C342     C        0.00960    0.49730    0.37330    1.000
    O341     O        0.01440    0.47690    0.41730    1.000
    O342     O        0.00890    0.46990    0.33380    1.000
    C343     C        0.00330    0.05360    0.86750    1.000
    H343     H        0.03230    0.07120    0.88260    1.000
    H344     H        0.97250    0.06480    0.88490    1.000
    C344     C        0.00960    0.99730    0.87330    1.000
    O343     O        0.01440    0.97690    0.91730    1.000
    O344     O        0.00890    0.96990    0.83380    1.000
    C345     C        0.74670    0.05360    0.88250    1.000
    H345     H        0.71770    0.07120    0.86740    1.000
    H346     H        0.77750    0.06480    0.86510    1.000
    C346     C        0.74040    0.99730    0.87670    1.000
    O345     O        0.73560    0.97690    0.83270    1.000
    O346     O        0.74110    0.96990    0.91620    1.000
    C347     C        0.74670    0.55360    0.38250    1.000
    H347     H        0.71770    0.57120    0.36740    1.000
    H348     H        0.77750    0.56480    0.36510    1.000
    C348     C        0.74040    0.49730    0.37670    1.000
    O347     O        0.73560    0.47690    0.33270    1.000
    O348     O        0.74110    0.46990    0.41620    1.000
    C349     C        0.24670    0.05360    0.38250    1.000
    H349     H        0.21770    0.07120    0.36740    1.000
    H350     H        0.27750    0.06480    0.36510    1.000
    C350     C        0.24040    0.99730    0.37670    1.000
    O349     O        0.23560    0.97690    0.33270    1.000
    O350     O        0.24110    0.96990    0.41620    1.000
    C351     C        0.24670    0.55360    0.88250    1.000
    H351     H        0.21770    0.57120    0.86740    1.000
    H352     H        0.27750    0.56480    0.86510    1.000
    C352     C        0.24040    0.49730    0.87670    1.000
    O351     O        0.23560    0.47690    0.83270    1.000
    O352     O        0.24110    0.46990    0.91620    1.000
    C353     C        0.19640    0.38250    0.00330    1.000
    H353     H        0.17880    0.36740    0.03230    1.000
    H354     H        0.18520    0.36510    0.97250    1.000
    C354     C        0.25270    0.37670    0.00960    1.000
    O353     O        0.27310    0.33270    0.01440    1.000
    O354     O        0.28010    0.41620    0.00890    1.000
    C355     C        0.19640    0.88250    0.50330    1.000
    H355     H        0.17880    0.86740    0.53230    1.000
    H356     H        0.18520    0.86510    0.47250    1.000
    C356     C        0.25270    0.87670    0.50960    1.000
    O355     O        0.27310    0.83270    0.51440    1.000
    O356     O        0.28010    0.91620    0.50890    1.000
    C357     C        0.69640    0.38250    0.50330    1.000
    H357     H        0.67880    0.36740    0.53230    1.000
    H358     H        0.68520    0.36510    0.47250    1.000
    C358     C        0.75270    0.37670    0.50960    1.000
    O357     O        0.77310    0.33270    0.51440    1.000
    O358     O        0.78010    0.41620    0.50890    1.000
    C359     C        0.69640    0.88250    0.00330    1.000
    H359     H        0.67880    0.86740    0.03230    1.000
    H360     H        0.68520    0.86510    0.97250    1.000
    C360     C        0.75270    0.87670    0.00960    1.000
    O359     O        0.77310    0.83270    0.01440    1.000
    O360     O        0.78010    0.91620    0.00890    1.000
    C361     C        0.69640    0.36750    0.24670    1.000
    H361     H        0.67880    0.38260    0.21770    1.000
    H362     H        0.68520    0.38490    0.27750    1.000
    C362     C        0.75270    0.37330    0.24040    1.000
    O361     O        0.77310    0.41730    0.23560    1.000
    O362     O        0.78010    0.33380    0.24110    1.000
    C363     C        0.69640    0.86750    0.74670    1.000
    H363     H        0.67880    0.88260    0.71770    1.000
    H364     H        0.68520    0.88490    0.77750    1.000
    C364     C        0.75270    0.87330    0.74040    1.000
    O363     O        0.77310    0.91730    0.73560    1.000
    O364     O        0.78010    0.83380    0.74110    1.000
    C365     C        0.19640    0.36750    0.74670    1.000
    H365     H        0.17880    0.38260    0.71770    1.000
    H366     H        0.18520    0.38490    0.77750    1.000
    C366     C        0.25270    0.37330    0.74040    1.000
    O365     O        0.27310    0.41730    0.73560    1.000
    O366     O        0.28010    0.33380    0.74110    1.000
    C367     C        0.19640    0.86750    0.24670    1.000
    H367     H        0.17880    0.88260    0.21770    1.000
    H368     H        0.18520    0.88490    0.27750    1.000
    C368     C        0.25270    0.87330    0.24040    1.000
    O367     O        0.27310    0.91730    0.23560    1.000
    O368     O        0.28010    0.83380    0.24110    1.000
    C369     C        0.05360    0.88250    0.74670    1.000
    H369     H        0.07120    0.86740    0.71770    1.000
    H370     H        0.06480    0.86510    0.77750    1.000
    C370     C        0.99730    0.87670    0.74040    1.000
    O369     O        0.97690    0.83270    0.73560    1.000
    O370     O        0.96990    0.91620    0.74110    1.000
    C371     C        0.05360    0.38250    0.24670    1.000
    H371     H        0.07120    0.36740    0.21770    1.000
    H372     H        0.06480    0.36510    0.27750    1.000
    C372     C        0.99730    0.37670    0.24040    1.000
    O371     O        0.97690    0.33270    0.23560    1.000
    O372     O        0.96990    0.41620    0.24110    1.000
    C373     C        0.55360    0.88250    0.24670    1.000
    H373     H        0.57120    0.86740    0.21770    1.000
    H374     H        0.56480    0.86510    0.27750    1.000
    C374     C        0.49730    0.87670    0.24040    1.000
    O373     O        0.47690    0.83270    0.23560    1.000
    O374     O        0.46990    0.91620    0.24110    1.000
    C375     C        0.55360    0.38250    0.74670    1.000
    H375     H        0.57120    0.36740    0.71770    1.000
    H376     H        0.56480    0.36510    0.77750    1.000
    C376     C        0.49730    0.37670    0.74040    1.000
    O375     O        0.47690    0.33270    0.73560    1.000
    O376     O        0.46990    0.41620    0.74110    1.000
    C377     C        0.55360    0.86750    0.50330    1.000
    H377     H        0.57120    0.88260    0.53230    1.000
    H378     H        0.56480    0.88490    0.47250    1.000
    C378     C        0.49730    0.87330    0.50960    1.000
    O377     O        0.47690    0.91730    0.51440    1.000
    O378     O        0.46990    0.83380    0.50890    1.000
    C379     C        0.55360    0.36750    0.00330    1.000
    H379     H        0.57120    0.38260    0.03230    1.000
    H380     H        0.56480    0.38490    0.97250    1.000
    C380     C        0.49730    0.37330    0.00960    1.000
    O379     O        0.47690    0.41730    0.01440    1.000
    O380     O        0.46990    0.33380    0.00890    1.000
    C381     C        0.05360    0.86750    0.00330    1.000
    H381     H        0.07120    0.88260    0.03230    1.000
    H382     H        0.06480    0.88490    0.97250    1.000
    C382     C        0.99730    0.87330    0.00960    1.000
    O381     O        0.97690    0.91730    0.01440    1.000
    O382     O        0.96990    0.83380    0.00890    1.000
    C383     C        0.05360    0.36750    0.50330    1.000
    H383     H        0.07120    0.38260    0.53230    1.000
    H384     H        0.06480    0.38490    0.47250    1.000
    C384     C        0.99730    0.37330    0.50960    1.000
    O383     O        0.97690    0.41730    0.51440    1.000
    O384     O        0.96990    0.33380    0.50890    1.000
    Tm1      Tm       0.00000    0.25000    0.00000    1.000
    Tm2      Tm       0.25000    0.50000    0.50000    1.000
    Tm3      Tm       0.75000    0.75000    0.25000    1.000
    Tm4      Tm       0.50000    0.00000    0.75000    1.000
    Tm5      Tm       0.00000    0.00000    0.25000    1.000
    Tm6      Tm       0.00000    0.50000    0.75000    1.000
    Tm7      Tm       0.50000    0.25000    0.50000    1.000
    Tm8      Tm       0.50000    0.75000    0.00000    1.000
    Tm9      Tm       0.25000    0.75000    0.75000    1.000
    Tm10     Tm       0.25000    0.25000    0.25000    1.000
    Tm11     Tm       0.75000    0.50000    0.00000    1.000
    Tm12     Tm       0.75000    0.00000    0.50000    1.000
    Tm13     Tm       0.25000    0.00000    0.00000    1.000
    Tm14     Tm       0.50000    0.50000    0.25000    1.000
    Tm15     Tm       0.75000    0.25000    0.75000    1.000
    Tm16     Tm       0.00000    0.75000    0.50000    1.000
    Tm17     Tm       0.00000    0.75000    0.00000    1.000
    Tm18     Tm       0.75000    0.50000    0.50000    1.000
    Tm19     Tm       0.25000    0.25000    0.75000    1.000
    Tm20     Tm       0.50000    0.00000    0.25000    1.000
    Tm21     Tm       0.00000    0.00000    0.75000    1.000
    Tm22     Tm       0.00000    0.50000    0.25000    1.000
    Tm23     Tm       0.50000    0.75000    0.50000    1.000
    Tm24     Tm       0.50000    0.25000    0.00000    1.000
    Tm25     Tm       0.75000    0.25000    0.25000    1.000
    Tm26     Tm       0.75000    0.75000    0.75000    1.000
    Tm27     Tm       0.25000    0.50000    0.00000    1.000
    Tm28     Tm       0.25000    0.00000    0.50000    1.000
    Tm29     Tm       0.75000    0.00000    0.00000    1.000
    Tm30     Tm       0.50000    0.50000    0.75000    1.000
    Tm31     Tm       0.25000    0.75000    0.25000    1.000
    Tm32     Tm       0.00000    0.25000    0.50000    1.000
    Cd1      Cd       0.00000    0.50000    0.00000    1.000
    Cd2      Cd       0.25000    0.25000    0.50000    1.000
    Cd3      Cd       0.75000    0.00000    0.25000    1.000
    Cd4      Cd       0.50000    0.75000    0.75000    1.000
    Cd5      Cd       0.00000    0.00000    0.50000    1.000
    Cd6      Cd       0.50000    0.25000    0.25000    1.000
    Cd7      Cd       0.25000    0.75000    0.00000    1.000
    Cd8      Cd       0.75000    0.50000    0.75000    1.000
    Cd9      Cd       0.50000    0.00000    0.00000    1.000
    Cd10     Cd       0.50000    0.50000    0.50000    1.000
    Cd11     Cd       0.25000    0.50000    0.25000    1.000
    Cd12     Cd       0.00000    0.25000    0.75000    1.000
    Cd13     Cd       0.75000    0.75000    0.50000    1.000
    Cd14     Cd       0.25000    0.25000    0.00000    1.000
    Cd15     Cd       0.00000    0.50000    0.50000    1.000
    Cd16     Cd       0.00000    0.00000    0.00000    1.000
    Cd17     Cd       0.75000    0.00000    0.75000    1.000
    Cd18     Cd       0.50000    0.75000    0.25000    1.000
    Cd19     Cd       0.75000    0.25000    0.50000    1.000
    Cd20     Cd       0.00000    0.75000    0.75000    1.000
    Cd21     Cd       0.50000    0.50000    0.00000    1.000
    Cd22     Cd       0.25000    0.00000    0.25000    1.000
    Cd23     Cd       0.75000    0.75000    0.00000    1.000
    Cd24     Cd       0.25000    0.50000    0.75000    1.000
    Cd25     Cd       0.00000    0.25000    0.25000    1.000
    Cd26     Cd       0.50000    0.00000    0.50000    1.000
    Cd27     Cd       0.25000    0.00000    0.75000    1.000
    Cd28     Cd       0.75000    0.25000    0.00000    1.000
    Cd29     Cd       0.00000    0.75000    0.25000    1.000
    Cd30     Cd       0.50000    0.25000    0.75000    1.000
    Cd31     Cd       0.25000    0.75000    0.50000    1.000
    Cd32     Cd       0.75000    0.50000    0.25000    1.000
    O385     O        0.00000    0.31540    0.06540    1.000
    O386     O        0.50000    0.31540    0.56540    1.000
    O387     O        0.25000    0.43460    0.56540    1.000
    O388     O        0.75000    0.43460    0.06540    1.000
    O389     O        0.75000    0.81540    0.18460    1.000
    O390     O        0.75000    0.31540    0.68460    1.000
    O391     O        0.25000    0.81540    0.68460    1.000
    O392     O        0.50000    0.93460    0.68460    1.000
    O393     O        0.00000    0.93460    0.18460    1.000
    O394     O        0.06540    0.00000    0.31540    1.000
    O395     O        0.06540    0.50000    0.81540    1.000
    O396     O        0.56540    0.25000    0.43460    1.000
    O397     O        0.56540    0.75000    0.93460    1.000
    O398     O        0.18460    0.75000    0.81540    1.000
    O399     O        0.18460    0.25000    0.31540    1.000
    O400     O        0.68460    0.75000    0.31540    1.000
    O401     O        0.68460    0.50000    0.93460    1.000
    O402     O        0.68460    0.00000    0.43460    1.000
    O403     O        0.18460    0.00000    0.93460    1.000
    O404     O        0.31540    0.06540    0.00000    1.000
    O405     O        0.31540    0.56540    0.50000    1.000
    O406     O        0.43460    0.56540    0.25000    1.000
    O407     O        0.43460    0.06540    0.75000    1.000
    O408     O        0.81540    0.18460    0.75000    1.000
    O409     O        0.81540    0.68460    0.25000    1.000
    O410     O        0.31540    0.68460    0.75000    1.000
    O411     O        0.93460    0.68460    0.50000    1.000
    O412     O        0.93460    0.18460    0.00000    1.000
    O413     O        0.06540    0.25000    0.93460    1.000
    O414     O        0.06540    0.75000    0.43460    1.000
    O415     O        0.18460    0.50000    0.43460    1.000
    O416     O        0.56540    0.00000    0.81540    1.000
    O417     O        0.56540    0.50000    0.31540    1.000
    O418     O        0.68460    0.25000    0.81540    1.000
    O419     O        0.25000    0.31540    0.18460    1.000
    O420     O        0.00000    0.81540    0.56540    1.000
    O421     O        0.50000    0.81540    0.06540    1.000
    O422     O        0.50000    0.43460    0.18460    1.000
    O423     O        0.00000    0.43460    0.68460    1.000
    O424     O        0.25000    0.93460    0.06540    1.000
    O425     O        0.75000    0.93460    0.56540    1.000
    O426     O        0.81540    0.56540    0.00000    1.000
    O427     O        0.81540    0.06540    0.50000    1.000
    O428     O        0.31540    0.18460    0.25000    1.000
    O429     O        0.93460    0.06540    0.25000    1.000
    O430     O        0.93460    0.56540    0.75000    1.000
    O431     O        0.43460    0.18460    0.50000    1.000
    O432     O        0.43460    0.68460    0.00000    1.000
    O433     O        0.00000    0.68460    0.93460    1.000
    O434     O        0.50000    0.68460    0.43460    1.000
    O435     O        0.75000    0.56540    0.43460    1.000
    O436     O        0.75000    0.06540    0.93460    1.000
    O437     O        0.25000    0.56540    0.93460    1.000
    O438     O        0.25000    0.18460    0.81540    1.000
    O439     O        0.75000    0.18460    0.31540    1.000
    O440     O        0.50000    0.06540    0.31540    1.000
    O441     O        0.00000    0.06540    0.81540    1.000
    O442     O        0.00000    0.56540    0.31540    1.000
    O443     O        0.93460    0.00000    0.68460    1.000
    O444     O        0.93460    0.50000    0.18460    1.000
    O445     O        0.43460    0.75000    0.56540    1.000
    O446     O        0.43460    0.25000    0.06540    1.000
    O447     O        0.93460    0.75000    0.06540    1.000
    O448     O        0.81540    0.25000    0.18460    1.000
    O449     O        0.81540    0.75000    0.68460    1.000
    O450     O        0.31540    0.50000    0.06540    1.000
    O451     O        0.31540    0.00000    0.56540    1.000
    O452     O        0.68460    0.93460    0.00000    1.000
    O453     O        0.68460    0.43460    0.50000    1.000
    O454     O        0.56540    0.43460    0.75000    1.000
    O455     O        0.56540    0.93460    0.25000    1.000
    O456     O        0.06540    0.93460    0.75000    1.000
    O457     O        0.18460    0.81540    0.25000    1.000
    O458     O        0.18460    0.31540    0.75000    1.000
    O459     O        0.06540    0.31540    0.50000    1.000
    O460     O        0.06540    0.81540    0.00000    1.000
    O461     O        0.56540    0.31540    0.00000    1.000
    O462     O        0.93460    0.25000    0.56540    1.000
    O463     O        0.81540    0.50000    0.56540    1.000
    O464     O        0.81540    0.00000    0.06540    1.000
    O465     O        0.43460    0.00000    0.18460    1.000
    O466     O        0.43460    0.50000    0.68460    1.000
    O467     O        0.31540    0.25000    0.68460    1.000
    O468     O        0.31540    0.75000    0.18460    1.000
    O469     O        0.25000    0.68460    0.31540    1.000
    O470     O        0.75000    0.68460    0.81540    1.000
    O471     O        0.00000    0.18460    0.43460    1.000
    O472     O        0.50000    0.18460    0.93460    1.000
    O473     O        0.50000    0.56540    0.81540    1.000
    O474     O        0.25000    0.06540    0.43460    1.000
    O475     O        0.18460    0.43460    0.00000    1.000
    O476     O        0.18460    0.93460    0.50000    1.000
    O477     O        0.68460    0.31540    0.25000    1.000
    O478     O        0.68460    0.81540    0.75000    1.000
    O479     O        0.06540    0.43460    0.25000    1.000
    O480     O        0.56540    0.81540    0.50000    1.000
