# CIF file generated by openbabel 3.1.0, see https://openbabel.org
data_I
_chemical_name_common 'GIHPEU_clean'
_cell_length_a 13.6872
_cell_length_b 13.6872
_cell_length_c 13.6872
_cell_angle_alpha 102.29
_cell_angle_beta 102.29
_cell_angle_gamma 102.29
_space_group_name_H-M_alt 'P 1'
_space_group_name_Hall 'P 1'
loop_
    _symmetry_equiv_pos_as_xyz
    x,y,z
loop_
    _atom_site_label
    _atom_site_type_symbol
    _atom_site_fract_x
    _atom_site_fract_y
    _atom_site_fract_z
    _atom_site_occupancy
    Co1      Co       0.88331    0.11669    0.50000    1.000
    Co2      Co       0.50000    0.88331    0.11669    1.000
    Co3      Co       0.11669    0.50000    0.88331    1.000
    H1       H        0.86620    0.40820    0.31690    1.000
    H2       H        0.87900    0.32530    0.62730    1.000
    H3       H        0.90070    0.91080    0.37740    1.000
    H4       H        0.82370    0.80620    0.65470    1.000
    H5       H        0.85850    0.48520    0.61570    1.000
    H6       H        0.85620    0.58210    0.38790    1.000
    H7       H        0.83760    0.97450    0.64440    1.000
    H8       H        0.88860    0.74080    0.37920    1.000
    H9       H        0.88390    0.24880    0.33680    1.000
    H10      H        0.85050    0.63480    0.59080    1.000
    H11      H        0.31690    0.86620    0.40820    1.000
    H12      H        0.62730    0.87900    0.32530    1.000
    H13      H        0.37740    0.90070    0.91080    1.000
    H14      H        0.65470    0.82370    0.80620    1.000
    H15      H        0.61570    0.85850    0.48520    1.000
    H16      H        0.38790    0.85620    0.58210    1.000
    H17      H        0.64440    0.83760    0.97450    1.000
    H18      H        0.37920    0.88860    0.74080    1.000
    H19      H        0.33680    0.88390    0.24880    1.000
    H20      H        0.59080    0.85050    0.63480    1.000
    H21      H        0.40820    0.31690    0.86620    1.000
    H22      H        0.32530    0.62730    0.87900    1.000
    H23      H        0.91080    0.37740    0.90070    1.000
    H24      H        0.80620    0.65470    0.82370    1.000
    H25      H        0.48520    0.61570    0.85850    1.000
    H26      H        0.58210    0.38790    0.85620    1.000
    H27      H        0.97450    0.64440    0.83760    1.000
    H28      H        0.74080    0.37920    0.88860    1.000
    H29      H        0.24880    0.33680    0.88390    1.000
    H30      H        0.63480    0.59080    0.85050    1.000
    H31      H        0.59180    0.13380    0.68310    1.000
    H32      H        0.67470    0.12100    0.37270    1.000
    H33      H        0.08920    0.09930    0.62260    1.000
    H34      H        0.19380    0.17630    0.34530    1.000
    H35      H        0.51480    0.14150    0.38430    1.000
    H36      H        0.41790    0.14380    0.61210    1.000
    H37      H        0.02550    0.16240    0.35560    1.000
    H38      H        0.25920    0.11140    0.62080    1.000
    H39      H        0.75120    0.11610    0.66320    1.000
    H40      H        0.36520    0.14950    0.40920    1.000
    H41      H        0.13380    0.68310    0.59180    1.000
    H42      H        0.12100    0.37270    0.67470    1.000
    H43      H        0.09930    0.62260    0.08920    1.000
    H44      H        0.17630    0.34530    0.19380    1.000
    H45      H        0.14150    0.38430    0.51480    1.000
    H46      H        0.14380    0.61210    0.41790    1.000
    H47      H        0.16240    0.35560    0.02550    1.000
    H48      H        0.11140    0.62080    0.25920    1.000
    H49      H        0.11610    0.66320    0.75120    1.000
    H50      H        0.14950    0.40920    0.36520    1.000
    H51      H        0.68310    0.59180    0.13380    1.000
    H52      H        0.37270    0.67470    0.12100    1.000
    H53      H        0.62260    0.08920    0.09930    1.000
    H54      H        0.34530    0.19380    0.17630    1.000
    H55      H        0.38430    0.51480    0.14150    1.000
    H56      H        0.61210    0.41790    0.14380    1.000
    H57      H        0.35560    0.02550    0.16240    1.000
    H58      H        0.62080    0.25920    0.11140    1.000
    H59      H        0.66320    0.75120    0.11610    1.000
    H60      H        0.40920    0.36520    0.14950    1.000
    W1       W        0.00000    0.20664    0.79336    1.000
    W2       W        0.79336    0.00000    0.20664    1.000
    W3       W        0.20664    0.79336    0.00000    1.000
    C1       C        0.86900    0.39350    0.38130    1.000
    C2       C        0.87630    0.34220    0.56390    1.000
    C3       C        0.85730    0.75370    0.51850    1.000
    C4       C        0.88540    0.88940    0.43450    1.000
    C5       C        0.84040    0.82570    0.59720    1.000
    C6       C        0.86480    0.43860    0.55760    1.000
    C7       C        0.86250    0.46690    0.46530    1.000
    C8       C        0.85750    0.57070    0.45350    1.000
    C9       C        0.84850    0.92650    0.59030    1.000
    C10      C        0.87860    0.78720    0.43520    1.000
    C11      C        0.87950    0.29790    0.39410    1.000
    C12      C        0.85460    0.64800    0.52700    1.000
    C13      C        0.38130    0.86900    0.39350    1.000
    C14      C        0.56390    0.87630    0.34220    1.000
    C15      C        0.51850    0.85730    0.75370    1.000
    C16      C        0.43450    0.88540    0.88940    1.000
    C17      C        0.59720    0.84040    0.82570    1.000
    C18      C        0.55760    0.86480    0.43860    1.000
    C19      C        0.46530    0.86250    0.46690    1.000
    C20      C        0.45350    0.85750    0.57070    1.000
    C21      C        0.59030    0.84850    0.92650    1.000
    C22      C        0.43520    0.87860    0.78720    1.000
    C23      C        0.39410    0.87950    0.29790    1.000
    C24      C        0.52700    0.85460    0.64800    1.000
    C25      C        0.39350    0.38130    0.86900    1.000
    C26      C        0.34220    0.56390    0.87630    1.000
    C27      C        0.75370    0.51850    0.85730    1.000
    C28      C        0.88940    0.43450    0.88540    1.000
    C29      C        0.82570    0.59720    0.84040    1.000
    C30      C        0.43860    0.55760    0.86480    1.000
    C31      C        0.46690    0.46530    0.86250    1.000
    C32      C        0.57070    0.45350    0.85750    1.000
    C33      C        0.92650    0.59030    0.84850    1.000
    C34      C        0.78720    0.43520    0.87860    1.000
    C35      C        0.29790    0.39410    0.87950    1.000
    C36      C        0.64800    0.52700    0.85460    1.000
    C37      C        0.60650    0.13100    0.61870    1.000
    C38      C        0.65780    0.12370    0.43610    1.000
    C39      C        0.24630    0.14270    0.48150    1.000
    C40      C        0.11060    0.11460    0.56550    1.000
    C41      C        0.17430    0.15960    0.40280    1.000
    C42      C        0.56140    0.13520    0.44240    1.000
    C43      C        0.53310    0.13750    0.53470    1.000
    C44      C        0.42930    0.14250    0.54650    1.000
    C45      C        0.07350    0.15150    0.40970    1.000
    C46      C        0.21280    0.12140    0.56480    1.000
    C47      C        0.70210    0.12050    0.60590    1.000
    C48      C        0.35200    0.14540    0.47300    1.000
    C49      C        0.13100    0.61870    0.60650    1.000
    C50      C        0.12370    0.43610    0.65780    1.000
    C51      C        0.14270    0.48150    0.24630    1.000
    C52      C        0.11460    0.56550    0.11060    1.000
    C53      C        0.15960    0.40280    0.17430    1.000
    C54      C        0.13520    0.44240    0.56140    1.000
    C55      C        0.13750    0.53470    0.53310    1.000
    C56      C        0.14250    0.54650    0.42930    1.000
    C57      C        0.15150    0.40970    0.07350    1.000
    C58      C        0.12140    0.56480    0.21280    1.000
    C59      C        0.12050    0.60590    0.70210    1.000
    C60      C        0.14540    0.47300    0.35200    1.000
    C61      C        0.61870    0.60650    0.13100    1.000
    C62      C        0.43610    0.65780    0.12370    1.000
    C63      C        0.48150    0.24630    0.14270    1.000
    C64      C        0.56550    0.11060    0.11460    1.000
    C65      C        0.40280    0.17430    0.15960    1.000
    C66      C        0.44240    0.56140    0.13520    1.000
    C67      C        0.53470    0.53310    0.13750    1.000
    C68      C        0.54650    0.42930    0.14250    1.000
    C69      C        0.40970    0.07350    0.15150    1.000
    C70      C        0.56480    0.21280    0.12140    1.000
    C71      C        0.60590    0.70210    0.12050    1.000
    C72      C        0.47300    0.35200    0.14540    1.000
    N1       N        0.88380    0.27160    0.48330    1.000
    N2       N        0.87110    0.95840    0.51090    1.000
    N3       N        0.48330    0.88380    0.27160    1.000
    N4       N        0.51090    0.87110    0.95840    1.000
    N5       N        0.27160    0.48330    0.88380    1.000
    N6       N        0.95840    0.51090    0.87110    1.000
    N7       N        0.72840    0.11620    0.51670    1.000
    N8       N        0.04160    0.12890    0.48910    1.000
    N9       N        0.11620    0.51670    0.72840    1.000
    N10      N        0.12890    0.48910    0.04160    1.000
    N11      N        0.51670    0.72840    0.11620    1.000
    N12      N        0.48910    0.04160    0.12890    1.000
    O1       O        0.93819    0.16828    0.65760    1.000
    O2       O        0.65760    0.93819    0.16828    1.000
    O3       O        0.16828    0.65760    0.93819    1.000
    O4       O        0.83172    0.06181    0.34240    1.000
    O5       O        0.06181    0.34240    0.83172    1.000
    O6       O        0.34240    0.83172    0.06181    1.000
