# CIF file generated by openbabel 3.1.0, see https://openbabel.org
data_I
_chemical_name_common 'image0'
_cell_length_a 12.352
_cell_length_b 33.725
_cell_length_c 13.03
_cell_angle_alpha 90
_cell_angle_beta 96.63
_cell_angle_gamma 90
_space_group_name_H-M_alt 'P 1'
_space_group_name_Hall 'P 1'
loop_
    _symmetry_equiv_pos_as_xyz
    x,y,z
loop_
    _atom_site_label
    _atom_site_type_symbol
    _atom_site_fract_x
    _atom_site_fract_y
    _atom_site_fract_z
    _atom_site_occupancy
    Mn1      Mn       0.70928    0.43455    0.10627    1.000
    C1       C        0.79690    0.35593    0.24050    1.000
    H1       H        0.81800    0.33040    0.27440    1.000
    H2       H        0.73750    0.35070    0.18440    1.000
    N1       N        0.71580    0.41798    0.28130    1.000
    N2       N        0.75820    0.38267    0.31510    1.000
    C2       C        0.75490    0.37867    0.41770    1.000
    C3       C        0.70870    0.41221    0.45150    1.000
    C4       C        0.68530    0.43627    0.36320    1.000
    C5       C        0.63080    0.47544    0.35410    1.000
    H3       H        0.68470    0.49610    0.34480    1.000
    H4       H        0.59680    0.48090    0.41690    1.000
    H5       H        0.57480    0.47530    0.29430    1.000
    C6       C        0.79100    0.34120    0.47380    1.000
    H6       H        0.74690    0.31900    0.44420    1.000
    H7       H        0.78160    0.34400    0.54710    1.000
    H8       H        0.86790    0.33630    0.46660    1.000
    C7       C        0.65150    0.44643    0.87710    1.000
    C8       C        0.69060    0.42113    0.55690    1.000
    C9       C        0.77290    0.41670    0.63780    1.000
    H9       H        0.84340    0.40940    0.62200    1.000
    C10      C        0.75840    0.42220    0.73800    1.000
    H10      H        0.81540    0.41550    0.79050    1.000
    C11      C        0.57850    0.44100    0.68850    1.000
    H11      H        0.50950    0.44950    0.70540    1.000
    C12      C        0.59130    0.43270    0.58620    1.000
    H12      H        0.53030    0.43500    0.53500    1.000
    C13      C        0.66290    0.43728    0.76490    1.000
    O1       O        0.71390    0.43005    0.94530    1.000
    O2       O        0.57750    0.46896    0.88970    1.000
    N3       N        0.87070    0.40290    0.12970    1.000
    N4       N        0.88940    0.37259    0.19710    1.000
    C14      C        0.99660    0.36477    0.21890    1.000
    C15      C        0.05030    0.39186    0.16360    1.000
    C16      C        0.96810    0.41504    0.10940    1.000
    C17      C        0.04110    0.33420    0.29230    1.000
    H13      H        0.99250    0.33080    0.34590    1.000
    H14      H        0.11340    0.34240    0.32430    1.000
    H15      H        0.04720    0.30910    0.25560    1.000
    C18      C        0.97900    0.44876    0.03630    1.000
    H16      H        0.91170    0.45130    0.98900    1.000
    H17      H        0.04020    0.44360    0.99660    1.000
    H18      H        0.99220    0.47340    0.07560    1.000
    C19      C        0.16940    0.39605    0.15960    1.000
    C20      C        0.23380    0.36390    0.13670    1.000
    H19      H        0.20300    0.33810    0.12930    1.000
    C21      C        0.34280    0.36966    0.12480    1.000
    H20      H        0.38580    0.34760    0.10900    1.000
    C22      C        0.38950    0.40626    0.13540    1.000
    C23      C        0.32790    0.43798    0.16190    1.000
    H21      H        0.36040    0.46340    0.17310    1.000
    C24      C        0.21720    0.43264    0.17230    1.000
    H22      H        0.17450    0.45480    0.18830    1.000
    C25      C        0.50460    0.41324    0.11540    1.000
    O3       O        0.53770    0.44928    0.11000    1.000
    O4       O        0.56720    0.38480    0.10540    1.000
    N5       N        0.12080    0.70858    0.22140    1.000
    N6       N        0.06860    0.71495    0.30670    1.000
    C26      C        0.98820    0.68818    0.31410    1.000
    C27      C        0.99020    0.66227    0.23100    1.000
    C28      C        0.07410    0.67611    0.17610    1.000
    C29      C        0.10710    0.65980    0.07620    1.000
    H23      H        0.06080    0.67140    0.01770    1.000
    H24      H        0.09850    0.63090    0.07510    1.000
    H25      H        0.18350    0.66660    0.07090    1.000
    C30      C        0.91240    0.68910    0.39340    1.000
    H26      H        0.95330    0.68540    0.46180    1.000
    H27      H        0.85880    0.66780    0.38030    1.000
    H28      H        0.87480    0.71470    0.39100    1.000
    C31      C        0.92090    0.62717    0.20740    1.000
    C32      C        0.82380    0.62957    0.14850    1.000
    H29      H        0.79820    0.65480    0.12410    1.000
    C33      C        0.76000    0.59629    0.12240    1.000
    H30      H        0.69120    0.59920    0.08240    1.000
    C34      C        0.79580    0.55966    0.15380    1.000
    C35      C        0.89210    0.55737    0.21410    1.000
    H31      H        0.91820    0.53230    0.23900    1.000
    C36      C        0.95210    0.59038    0.23980    1.000
    H32      H        0.01920    0.58750    0.28270    1.000
    C37      C        0.73090    0.52336    0.11880    1.000
    O5       O        0.64250    0.52818    0.06700    1.000
    O6       O        0.77340    0.49076    0.14320    1.000
    C38      C        0.33070    0.71150    0.15140    1.000
    O7       O        0.39490    0.68840    0.13780    1.000
    C39      C        0.69720    0.42107    0.56350    1.000
    C40      C        0.65470    0.39212    0.62330    1.000
    H33      H        0.62620    0.36830    0.59210    1.000
    C41      C        0.65370    0.39806    0.72880    1.000
    H34      H        0.62460    0.37830    0.76960    1.000
    C42      C        0.69540    0.43295    0.77440    1.000
    C43      C        0.73790    0.46190    0.71460    1.000
    H35      H        0.76640    0.48570    0.74580    1.000
    C44      C        0.73890    0.45600    0.60910    1.000
    H36      H        0.76800    0.47570    0.56820    1.000
    Mn2      Mn       0.29072    0.93455    0.89373    1.000
    C45      C        0.20310    0.85593    0.75950    1.000
    H37      H        0.18200    0.83040    0.72560    1.000
    H38      H        0.26250    0.85070    0.81560    1.000
    N7       N        0.28420    0.91798    0.71870    1.000
    N8       N        0.24180    0.88267    0.68490    1.000
    C46      C        0.24510    0.87867    0.58230    1.000
    C47      C        0.29130    0.91221    0.54850    1.000
    C48      C        0.31470    0.93627    0.63680    1.000
    C49      C        0.36920    0.97544    0.64590    1.000
    H39      H        0.31530    0.99610    0.65520    1.000
    H40      H        0.40320    0.98090    0.58310    1.000
    H41      H        0.42520    0.97530    0.70570    1.000
    C50      C        0.20900    0.84120    0.52620    1.000
    H42      H        0.25310    0.81900    0.55580    1.000
    H43      H        0.21840    0.84400    0.45290    1.000
    H44      H        0.13210    0.83630    0.53340    1.000
    C51      C        0.34850    0.94643    0.12290    1.000
    C52      C        0.30940    0.92113    0.44310    1.000
    C53      C        0.22710    0.91670    0.36220    1.000
    H45      H        0.15660    0.90940    0.37800    1.000
    C54      C        0.24160    0.92220    0.26200    1.000
    H46      H        0.18460    0.91550    0.20950    1.000
    C55      C        0.42150    0.94100    0.31150    1.000
    H47      H        0.49050    0.94950    0.29460    1.000
    C56      C        0.40870    0.93270    0.41380    1.000
    H48      H        0.46970    0.93500    0.46500    1.000
    C57      C        0.33710    0.93728    0.23510    1.000
    O8       O        0.28610    0.93005    0.05470    1.000
    O9       O        0.42250    0.96896    0.11030    1.000
    N9       N        0.12930    0.90290    0.87030    1.000
    N10      N        0.11060    0.87259    0.80290    1.000
    C58      C        0.00340    0.86477    0.78110    1.000
    C59      C        0.94970    0.89186    0.83640    1.000
    C60      C        0.03190    0.91504    0.89060    1.000
    C61      C        0.95890    0.83420    0.70770    1.000
    H49      H        0.00750    0.83080    0.65410    1.000
    H50      H        0.88660    0.84240    0.67570    1.000
    H51      H        0.95280    0.80910    0.74440    1.000
    C62      C        0.02100    0.94876    0.96370    1.000
    H52      H        0.08830    0.95130    0.01100    1.000
    H53      H        0.95980    0.94360    0.00340    1.000
    H54      H        0.00780    0.97340    0.92440    1.000
    C63      C        0.83060    0.89605    0.84040    1.000
    C64      C        0.76620    0.86390    0.86330    1.000
    H55      H        0.79700    0.83810    0.87070    1.000
    C65      C        0.65720    0.86966    0.87520    1.000
    H56      H        0.61420    0.84760    0.89100    1.000
    C66      C        0.61050    0.90626    0.86460    1.000
    C67      C        0.67210    0.93798    0.83810    1.000
    H57      H        0.63960    0.96340    0.82690    1.000
    C68      C        0.78280    0.93264    0.82770    1.000
    H58      H        0.82550    0.95480    0.81170    1.000
    C69      C        0.49540    0.91324    0.88460    1.000
    O10      O        0.46230    0.94928    0.89000    1.000
    O11      O        0.43280    0.88480    0.89460    1.000
    N11      N        0.87920    0.20858    0.77860    1.000
    N12      N        0.93140    0.21495    0.69330    1.000
    C70      C        0.01180    0.18818    0.68590    1.000
    C71      C        0.00980    0.16227    0.76900    1.000
    C72      C        0.92590    0.17611    0.82390    1.000
    C73      C        0.89290    0.15980    0.92380    1.000
    H59      H        0.93920    0.17140    0.98230    1.000
    H60      H        0.90150    0.13090    0.92490    1.000
    H61      H        0.81650    0.16660    0.92910    1.000
    C74      C        0.08760    0.18910    0.60660    1.000
    H62      H        0.04670    0.18540    0.53820    1.000
    H63      H        0.14120    0.16780    0.61970    1.000
    H64      H        0.12520    0.21470    0.60900    1.000
    C75      C        0.07910    0.12717    0.79260    1.000
    C76      C        0.17620    0.12957    0.85150    1.000
    H65      H        0.20180    0.15480    0.87590    1.000
    C77      C        0.24000    0.09629    0.87760    1.000
    H66      H        0.30880    0.09920    0.91760    1.000
    C78      C        0.20420    0.05966    0.84620    1.000
    C79      C        0.10790    0.05737    0.78590    1.000
    H67      H        0.08180    0.03230    0.76100    1.000
    C80      C        0.04790    0.09038    0.76020    1.000
    H68      H        0.98080    0.08750    0.71730    1.000
    C81      C        0.26910    0.02336    0.88120    1.000
    O12      O        0.35750    0.02818    0.93300    1.000
    O13      O        0.22660    0.99076    0.85680    1.000
    C82      C        0.66930    0.21150    0.84860    1.000
    O14      O        0.60510    0.18840    0.86220    1.000
    C83      C        0.30280    0.92107    0.43650    1.000
    C84      C        0.34530    0.89212    0.37670    1.000
    H69      H        0.37380    0.86830    0.40790    1.000
    C85      C        0.34630    0.89806    0.27120    1.000
    H70      H        0.37540    0.87830    0.23040    1.000
    C86      C        0.30460    0.93295    0.22560    1.000
    C87      C        0.26210    0.96190    0.28540    1.000
    H71      H        0.23360    0.98570    0.25420    1.000
    C88      C        0.26110    0.95600    0.39090    1.000
    H72      H        0.23200    0.97570    0.43180    1.000
    Mn3      Mn       0.29072    0.56545    0.89373    1.000
    C89      C        0.20310    0.64407    0.75950    1.000
    H73      H        0.18200    0.66960    0.72560    1.000
    H74      H        0.26250    0.64930    0.81560    1.000
    N13      N        0.28420    0.58202    0.71870    1.000
    N14      N        0.24180    0.61733    0.68490    1.000
    C90      C        0.24510    0.62133    0.58230    1.000
    C91      C        0.29130    0.58779    0.54850    1.000
    C92      C        0.31470    0.56373    0.63680    1.000
    C93      C        0.36920    0.52456    0.64590    1.000
    H75      H        0.31530    0.50390    0.65520    1.000
    H76      H        0.40320    0.51910    0.58310    1.000
    H77      H        0.42520    0.52470    0.70570    1.000
    C94      C        0.20900    0.65880    0.52620    1.000
    H78      H        0.25310    0.68100    0.55580    1.000
    H79      H        0.21840    0.65600    0.45290    1.000
    H80      H        0.13210    0.66370    0.53340    1.000
    C95      C        0.34850    0.55357    0.12290    1.000
    C96      C        0.30940    0.57887    0.44310    1.000
    C97      C        0.22710    0.58330    0.36220    1.000
    H81      H        0.15660    0.59060    0.37800    1.000
    C98      C        0.24160    0.57780    0.26200    1.000
    H82      H        0.18460    0.58450    0.20950    1.000
    C99      C        0.42150    0.55900    0.31150    1.000
    H83      H        0.49050    0.55050    0.29460    1.000
    C100     C        0.40870    0.56730    0.41380    1.000
    H84      H        0.46970    0.56500    0.46500    1.000
    C101     C        0.33710    0.56272    0.23510    1.000
    O15      O        0.28610    0.56995    0.05470    1.000
    O16      O        0.42250    0.53104    0.11030    1.000
    N15      N        0.12930    0.59710    0.87030    1.000
    N16      N        0.11060    0.62741    0.80290    1.000
    C102     C        0.00340    0.63523    0.78110    1.000
    C103     C        0.94970    0.60814    0.83640    1.000
    C104     C        0.03190    0.58496    0.89060    1.000
    C105     C        0.95890    0.66580    0.70770    1.000
    H85      H        0.00750    0.66920    0.65410    1.000
    H86      H        0.88660    0.65760    0.67570    1.000
    H87      H        0.95280    0.69090    0.74440    1.000
    C106     C        0.02100    0.55124    0.96370    1.000
    H88      H        0.08830    0.54870    0.01100    1.000
    H89      H        0.95980    0.55640    0.00340    1.000
    H90      H        0.00780    0.52660    0.92440    1.000
    C107     C        0.83060    0.60395    0.84040    1.000
    C108     C        0.76620    0.63610    0.86330    1.000
    H91      H        0.79700    0.66190    0.87070    1.000
    C109     C        0.65720    0.63034    0.87520    1.000
    H92      H        0.61420    0.65240    0.89100    1.000
    C110     C        0.61050    0.59374    0.86460    1.000
    C111     C        0.67210    0.56202    0.83810    1.000
    H93      H        0.63960    0.53660    0.82690    1.000
    C112     C        0.78280    0.56736    0.82770    1.000
    H94      H        0.82550    0.54520    0.81170    1.000
    C113     C        0.49540    0.58676    0.88460    1.000
    O17      O        0.46230    0.55072    0.89000    1.000
    O18      O        0.43280    0.61520    0.89460    1.000
    N17      N        0.87920    0.29142    0.77860    1.000
    N18      N        0.93140    0.28505    0.69330    1.000
    C114     C        0.01180    0.31182    0.68590    1.000
    C115     C        0.00980    0.33773    0.76900    1.000
    C116     C        0.92590    0.32389    0.82390    1.000
    C117     C        0.89290    0.34020    0.92380    1.000
    H95      H        0.93920    0.32860    0.98230    1.000
    H96      H        0.90150    0.36910    0.92490    1.000
    H97      H        0.81650    0.33340    0.92910    1.000
    C118     C        0.08760    0.31090    0.60660    1.000
    H98      H        0.04670    0.31460    0.53820    1.000
    H99      H        0.14120    0.33220    0.61970    1.000
    H100     H        0.12520    0.28530    0.60900    1.000
    C119     C        0.07910    0.37283    0.79260    1.000
    C120     C        0.17620    0.37043    0.85150    1.000
    H101     H        0.20180    0.34520    0.87590    1.000
    C121     C        0.24000    0.40371    0.87760    1.000
    H102     H        0.30880    0.40080    0.91760    1.000
    C122     C        0.20420    0.44034    0.84620    1.000
    C123     C        0.10790    0.44263    0.78590    1.000
    H103     H        0.08180    0.46770    0.76100    1.000
    C124     C        0.04790    0.40962    0.76020    1.000
    H104     H        0.98080    0.41250    0.71730    1.000
    C125     C        0.26910    0.47664    0.88120    1.000
    O19      O        0.35750    0.47182    0.93300    1.000
    O20      O        0.22660    0.50924    0.85680    1.000
    C126     C        0.66930    0.28850    0.84860    1.000
    O21      O        0.60510    0.31160    0.86220    1.000
    C127     C        0.30280    0.57893    0.43650    1.000
    C128     C        0.34530    0.60788    0.37670    1.000
    H105     H        0.37380    0.63170    0.40790    1.000
    C129     C        0.34630    0.60194    0.27120    1.000
    H106     H        0.37540    0.62170    0.23040    1.000
    C130     C        0.30460    0.56705    0.22560    1.000
    C131     C        0.26210    0.53810    0.28540    1.000
    H107     H        0.23360    0.51430    0.25420    1.000
    C132     C        0.26110    0.54400    0.39090    1.000
    H108     H        0.23200    0.52430    0.43180    1.000
    Mn4      Mn       0.70928    0.06545    0.10627    1.000
    C133     C        0.79690    0.14407    0.24050    1.000
    H109     H        0.81800    0.16960    0.27440    1.000
    H110     H        0.73750    0.14930    0.18440    1.000
    N19      N        0.71580    0.08202    0.28130    1.000
    N20      N        0.75820    0.11733    0.31510    1.000
    C134     C        0.75490    0.12133    0.41770    1.000
    C135     C        0.70870    0.08779    0.45150    1.000
    C136     C        0.68530    0.06373    0.36320    1.000
    C137     C        0.63080    0.02456    0.35410    1.000
    H111     H        0.68470    0.00390    0.34480    1.000
    H112     H        0.59680    0.01910    0.41690    1.000
    H113     H        0.57480    0.02470    0.29430    1.000
    C138     C        0.79100    0.15880    0.47380    1.000
    H114     H        0.74690    0.18100    0.44420    1.000
    H115     H        0.78160    0.15600    0.54710    1.000
    H116     H        0.86790    0.16370    0.46660    1.000
    C139     C        0.65150    0.05357    0.87710    1.000
    C140     C        0.69060    0.07887    0.55690    1.000
    C141     C        0.77290    0.08330    0.63780    1.000
    H117     H        0.84340    0.09060    0.62200    1.000
    C142     C        0.75840    0.07780    0.73800    1.000
    H118     H        0.81540    0.08450    0.79050    1.000
    C143     C        0.57850    0.05900    0.68850    1.000
    H119     H        0.50950    0.05050    0.70540    1.000
    C144     C        0.59130    0.06730    0.58620    1.000
    H120     H        0.53030    0.06500    0.53500    1.000
    C145     C        0.66290    0.06272    0.76490    1.000
    O22      O        0.71390    0.06995    0.94530    1.000
    O23      O        0.57750    0.03104    0.88970    1.000
    N21      N        0.87070    0.09710    0.12970    1.000
    N22      N        0.88940    0.12741    0.19710    1.000
    C146     C        0.99660    0.13523    0.21890    1.000
    C147     C        0.05030    0.10814    0.16360    1.000
    C148     C        0.96810    0.08496    0.10940    1.000
    C149     C        0.04110    0.16580    0.29230    1.000
    H121     H        0.99250    0.16920    0.34590    1.000
    H122     H        0.11340    0.15760    0.32430    1.000
    H123     H        0.04720    0.19090    0.25560    1.000
    C150     C        0.97900    0.05124    0.03630    1.000
    H124     H        0.91170    0.04870    0.98900    1.000
    H125     H        0.04020    0.05640    0.99660    1.000
    H126     H        0.99220    0.02660    0.07560    1.000
    C151     C        0.16940    0.10395    0.15960    1.000
    C152     C        0.23380    0.13610    0.13670    1.000
    H127     H        0.20300    0.16190    0.12930    1.000
    C153     C        0.34280    0.13034    0.12480    1.000
    H128     H        0.38580    0.15240    0.10900    1.000
    C154     C        0.38950    0.09374    0.13540    1.000
    C155     C        0.32790    0.06202    0.16190    1.000
    H129     H        0.36040    0.03660    0.17310    1.000
    C156     C        0.21720    0.06736    0.17230    1.000
    H130     H        0.17450    0.04520    0.18830    1.000
    C157     C        0.50460    0.08676    0.11540    1.000
    O24      O        0.53770    0.05072    0.11000    1.000
    O25      O        0.56720    0.11520    0.10540    1.000
    N23      N        0.12080    0.79142    0.22140    1.000
    N24      N        0.06860    0.78505    0.30670    1.000
    C158     C        0.98820    0.81182    0.31410    1.000
    C159     C        0.99020    0.83773    0.23100    1.000
    C160     C        0.07410    0.82389    0.17610    1.000
    C161     C        0.10710    0.84020    0.07620    1.000
    H131     H        0.06080    0.82860    0.01770    1.000
    H132     H        0.09850    0.86910    0.07510    1.000
    H133     H        0.18350    0.83340    0.07090    1.000
    C162     C        0.91240    0.81090    0.39340    1.000
    H134     H        0.95330    0.81460    0.46180    1.000
    H135     H        0.85880    0.83220    0.38030    1.000
    H136     H        0.87480    0.78530    0.39100    1.000
    C163     C        0.92090    0.87283    0.20740    1.000
    C164     C        0.82380    0.87043    0.14850    1.000
    H137     H        0.79820    0.84520    0.12410    1.000
    C165     C        0.76000    0.90371    0.12240    1.000
    H138     H        0.69120    0.90080    0.08240    1.000
    C166     C        0.79580    0.94034    0.15380    1.000
    C167     C        0.89210    0.94263    0.21410    1.000
    H139     H        0.91820    0.96770    0.23900    1.000
    C168     C        0.95210    0.90962    0.23980    1.000
    H140     H        0.01920    0.91250    0.28270    1.000
    C169     C        0.73090    0.97664    0.11880    1.000
    O26      O        0.64250    0.97182    0.06700    1.000
    O27      O        0.77340    0.00924    0.14320    1.000
    C170     C        0.33070    0.78850    0.15140    1.000
    O28      O        0.39490    0.81160    0.13780    1.000
    C171     C        0.69720    0.07893    0.56350    1.000
    C172     C        0.65470    0.10788    0.62330    1.000
    H141     H        0.62620    0.13170    0.59210    1.000
    C173     C        0.65370    0.10194    0.72880    1.000
    H142     H        0.62460    0.12170    0.76960    1.000
    C174     C        0.69540    0.06705    0.77440    1.000
    C175     C        0.73790    0.03810    0.71460    1.000
    H143     H        0.76640    0.01430    0.74580    1.000
    C176     C        0.73890    0.04400    0.60910    1.000
    H144     H        0.76800    0.02430    0.56820    1.000
    Rh1      Rh       0.23321    0.75000    0.18148    1.000
    C177     C        0.10060    0.75000    0.36610    1.000
    H145     H        0.18050    0.75000    0.38500    1.000
    H146     H        0.06540    0.75000    0.43060    1.000
    Rh2      Rh       0.76679    0.25000    0.81852    1.000
    C178     C        0.89940    0.25000    0.63390    1.000
    H147     H        0.81950    0.25000    0.61500    1.000
    H148     H        0.93460    0.25000    0.56940    1.000
    Mn5      Mn       0.50000    0.50000    0.00000    1.000
    Mn6      Mn       0.50000    0.00000    0.00000    1.000
