# CIF file generated by openbabel 3.1.0, see https://openbabel.org
data_I
_chemical_name_common 'image0'
_cell_length_a 14.6355
_cell_length_b 21.0669
_cell_length_c 16.3476
_cell_angle_alpha 90
_cell_angle_beta 98.291
_cell_angle_gamma 90
_space_group_name_H-M_alt 'P 1'
_space_group_name_Hall 'P 1'
loop_
    _symmetry_equiv_pos_as_xyz
    x,y,z
loop_
    _atom_site_label
    _atom_site_type_symbol
    _atom_site_fract_x
    _atom_site_fract_y
    _atom_site_fract_z
    _atom_site_occupancy
    C1       C        0.68160    0.05420    0.64420    1.000
    H1       H        0.71640    0.03940    0.69250    1.000
    C2       C        0.61650    0.11320    0.54850    1.000
    H2       H        0.59750    0.14950    0.51840    1.000
    C3       C        0.63620    0.94920    0.57740    1.000
    H3       H        0.58450    0.93600    0.53700    1.000
    H4       H        0.62960    0.92960    0.62990    1.000
    C4       C        0.72790    0.92790    0.54930    1.000
    C5       C        0.72570    0.85400    0.52990    1.000
    H5       H        0.67690    0.84530    0.48450    1.000
    H6       H        0.78380    0.84160    0.51270    1.000
    C6       C        0.74710    0.96500    0.47280    1.000
    C7       C        0.81510    0.00970    0.48010    1.000
    H7       H        0.85660    0.01210    0.52880    1.000
    C8       C        0.82380    0.05320    0.41430    1.000
    H8       H        0.86810    0.08520    0.42120    1.000
    C9       C        0.76550    0.04690    0.34030    1.000
    C10      C        0.70080    0.00080    0.33170    1.000
    H9       H        0.66320    0.99550    0.28120    1.000
    C11      C        0.68960    0.96090    0.39780    1.000
    C12      C        0.82730    0.27740    0.59170    1.000
    H10      H        0.81610    0.31480    0.61870    1.000
    C13      C        0.83200    0.18320    0.55450    1.000
    H11      H        0.82310    0.13950    0.55190    1.000
    C14      C        0.91170    0.32640    0.48520    1.000
    H12      H        0.87970    0.36550    0.49460    1.000
    H13      H        0.90240    0.31800    0.42630    1.000
    C15      C        0.01550    0.33480    0.51540    1.000
    C16      C        0.05390    0.39340    0.47210    1.000
    H14      H        0.01060    0.42830    0.47110    1.000
    H15      H        0.11180    0.40670    0.50390    1.000
    C17      C        0.03510    0.34370    0.61050    1.000
    C18      C        0.07700    0.29750    0.66210    1.000
    H16      H        0.09740    0.25990    0.64100    1.000
    C19      C        0.08800    0.30850    0.74630    1.000
    H17      H        0.11500    0.27710    0.78190    1.000
    C20      C        0.06120    0.36260    0.77840    1.000
    C21      C        0.01780    0.40630    0.73220    1.000
    H18      H        0.99660    0.44280    0.75520    1.000
    C22      C        0.00410    0.39660    0.64680    1.000
    N1       N        0.80010    0.22120    0.61190    1.000
    N2       N        0.87650    0.21480    0.50320    1.000
    N3       N        0.87250    0.27400    0.52830    1.000
    N4       N        0.66940    0.11520    0.62310    1.000
    N5       N        0.59370    0.05410    0.52140    1.000
    N6       N        0.63660    0.01830    0.58580    1.000
    O1       O        0.97710    0.07840    0.96850    1.000
    O2       O        0.06950    0.97340    0.94190    1.000
    O3       O        0.94210    0.99040    0.90500    1.000
    O4       O        0.91010    0.96720    0.00220    1.000
    O5       O        0.99380    0.17400    0.01450    1.000
    O6       O        0.17010    0.09660    0.90770    1.000
    O7       O        0.12910    0.99080    0.82360    1.000
    O8       O        0.84010    0.86680    0.93870    1.000
    O9       O        0.74920    0.97200    0.96660    1.000
    O10      O        0.20980    0.92260    0.94960    1.000
    O11      O        0.82100    0.20570    0.05380    1.000
    O12      O        0.80240    0.02580    0.83620    1.000
    O13      O        0.84730    0.12940    0.92330    1.000
    O14      O        0.89340    0.92030    0.80700    1.000
    O15      O        0.06180    0.87890    0.85470    1.000
    O16      O        0.96030    0.03430    0.77600    1.000
    O17      O        0.00140    0.13720    0.86090    1.000
    O18      O        0.83310    0.13330    0.75250    1.000
    O19      O        0.80060    0.93940    0.61670    1.000
    H19      H        0.85010    0.92820    0.60330    1.000
    O20      O        0.06440    0.27990    0.49610    1.000
    H20      H        0.05640    0.27440    0.44590    1.000
    Ni1      Ni       0.71811    0.19079    0.70041    1.000
    W1       W        0.89280    0.08970    0.83200    1.000
    W2       W        0.01330    0.95126    0.79374    1.000
    W3       W        0.80106    0.94029    0.87441    1.000
    W4       W        0.21291    0.00952    0.92070    1.000
    W5       W        0.09137    0.15061    0.95489    1.000
    W6       W        0.87356    0.12982    0.04160    1.000
    F1       F        0.61920    0.91850    0.38810    1.000
    F2       F        0.77120    0.08800    0.27970    1.000
    F3       F        0.96000    0.44480    0.59860    1.000
    F4       F        0.07390    0.36820    0.86220    1.000
    N7       N        0.71040    0.81620    0.60110    1.000
    N8       N        0.06870    0.37900    0.38820    1.000
    N9       N        0.00140    0.38860    0.32100    1.000
    N10      N        0.62310    0.80540    0.61700    1.000
    C23      C        0.77120    0.78850    0.65900    1.000
    H21      H        0.83500    0.78980    0.66100    1.000
    N11      N        0.77320    0.25880    0.78680    1.000
    C24      C        0.14310    0.35430    0.36240    1.000
    H22      H        0.19710    0.34380    0.39710    1.000
    C25      C        0.04360    0.36890    0.26100    1.000
    H23      H        0.01510    0.37010    0.20630    1.000
    C26      C        0.63670    0.76950    0.68350    1.000
    H24      H        0.58850    0.75280    0.70820    1.000
    N12      N        0.63100    0.15350    0.78120    1.000
    W7       W        0.89580    0.10520    0.84050    1.000
    W8       W        0.88620    0.07570    0.82360    1.000
    W9       W        0.88662    0.15080    0.03426    1.000
    C27      C        0.81840    0.55420    0.85580    1.000
    H25      H        0.78360    0.53940    0.80750    1.000
    C28      C        0.88350    0.61320    0.95150    1.000
    H26      H        0.90250    0.64950    0.98160    1.000
    C29      C        0.86380    0.44920    0.92260    1.000
    H27      H        0.91550    0.43600    0.96300    1.000
    H28      H        0.87040    0.42960    0.87010    1.000
    C30      C        0.77210    0.42790    0.95070    1.000
    C31      C        0.77430    0.35400    0.97010    1.000
    H29      H        0.82310    0.34530    0.01550    1.000
    H30      H        0.71620    0.34160    0.98730    1.000
    C32      C        0.75290    0.46500    0.02720    1.000
    C33      C        0.68490    0.50970    0.01990    1.000
    H31      H        0.64340    0.51210    0.97120    1.000
    C34      C        0.67620    0.55320    0.08570    1.000
    H32      H        0.63190    0.58520    0.07880    1.000
    C35      C        0.73450    0.54690    0.15970    1.000
    C36      C        0.79920    0.50080    0.16830    1.000
    H33      H        0.83680    0.49550    0.21880    1.000
    C37      C        0.81040    0.46090    0.10220    1.000
    C38      C        0.67270    0.77740    0.90830    1.000
    H34      H        0.68390    0.81480    0.88130    1.000
    C39      C        0.66800    0.68320    0.94550    1.000
    H35      H        0.67690    0.63950    0.94810    1.000
    C40      C        0.58830    0.82640    0.01480    1.000
    H36      H        0.62030    0.86550    0.00540    1.000
    H37      H        0.59760    0.81800    0.07370    1.000
    C41      C        0.48450    0.83480    0.98460    1.000
    C42      C        0.44610    0.89340    0.02790    1.000
    H38      H        0.48940    0.92830    0.02890    1.000
    H39      H        0.38820    0.90670    0.99610    1.000
    C43      C        0.46490    0.84370    0.88950    1.000
    C44      C        0.42300    0.79750    0.83790    1.000
    H40      H        0.40260    0.75990    0.85900    1.000
    C45      C        0.41200    0.80850    0.75370    1.000
    H41      H        0.38500    0.77710    0.71810    1.000
    C46      C        0.43880    0.86260    0.72160    1.000
    C47      C        0.48220    0.90630    0.76780    1.000
    H42      H        0.50340    0.94280    0.74480    1.000
    C48      C        0.49590    0.89660    0.85320    1.000
    N13      N        0.69990    0.72120    0.88810    1.000
    N14      N        0.62350    0.71480    0.99680    1.000
    N15      N        0.62750    0.77400    0.97170    1.000
    N16      N        0.83060    0.61520    0.87690    1.000
    N17      N        0.90630    0.55410    0.97860    1.000
    N18      N        0.86340    0.51830    0.91420    1.000
    O21      O        0.52290    0.57840    0.53150    1.000
    O22      O        0.43050    0.47340    0.55810    1.000
    O23      O        0.55790    0.49040    0.59500    1.000
    O24      O        0.58990    0.46720    0.49780    1.000
    O25      O        0.50620    0.67400    0.48550    1.000
    O26      O        0.32990    0.59660    0.59230    1.000
    O27      O        0.37090    0.49080    0.67640    1.000
    O28      O        0.65990    0.36680    0.56130    1.000
    O29      O        0.75080    0.47200    0.53340    1.000
    O30      O        0.29020    0.42260    0.55040    1.000
    O31      O        0.67900    0.70570    0.44620    1.000
    O32      O        0.69760    0.52580    0.66380    1.000
    O33      O        0.65270    0.62940    0.57670    1.000
    O34      O        0.60660    0.42030    0.69300    1.000
    O35      O        0.43820    0.37890    0.64530    1.000
    O36      O        0.53970    0.53430    0.72400    1.000
    O37      O        0.49860    0.63720    0.63910    1.000
    O38      O        0.66690    0.63330    0.74750    1.000
    O39      O        0.69940    0.43940    0.88330    1.000
    H43      H        0.64990    0.42820    0.89670    1.000
    O40      O        0.43560    0.77990    0.00390    1.000
    H44      H        0.44360    0.77440    0.05410    1.000
    Ni2      Ni       0.78189    0.69079    0.79959    1.000
    W10      W        0.60720    0.58970    0.66800    1.000
    W11      W        0.48670    0.45126    0.70626    1.000
    W12      W        0.69894    0.44029    0.62559    1.000
    W13      W        0.28709    0.50952    0.57930    1.000
    W14      W        0.40863    0.65061    0.54511    1.000
    W15      W        0.62644    0.62982    0.45840    1.000
    F5       F        0.88080    0.41850    0.11190    1.000
    F6       F        0.72880    0.58800    0.22030    1.000
    F7       F        0.54000    0.94480    0.90140    1.000
    F8       F        0.42610    0.86820    0.63780    1.000
    N19      N        0.78960    0.31620    0.89890    1.000
    N20      N        0.43130    0.87900    0.11180    1.000
    N21      N        0.49860    0.88860    0.17900    1.000
    N22      N        0.87690    0.30540    0.88300    1.000
    C49      C        0.72880    0.28850    0.84100    1.000
    H45      H        0.66500    0.28980    0.83900    1.000
    N23      N        0.72680    0.75880    0.71320    1.000
    C50      C        0.35690    0.85430    0.13760    1.000
    H46      H        0.30290    0.84380    0.10290    1.000
    C51      C        0.45640    0.86890    0.23900    1.000
    H47      H        0.48490    0.87010    0.29370    1.000
    C52      C        0.86330    0.26950    0.81650    1.000
    H48      H        0.91150    0.25280    0.79180    1.000
    N24      N        0.86900    0.65350    0.71880    1.000
    W16      W        0.60420    0.60520    0.65950    1.000
    W17      W        0.61380    0.57570    0.67640    1.000
    W18      W        0.61338    0.65080    0.46574    1.000
    C53      C        0.31840    0.94580    0.35580    1.000
    H49      H        0.28360    0.96060    0.30750    1.000
    C54      C        0.38350    0.88680    0.45150    1.000
    H50      H        0.40250    0.85050    0.48160    1.000
    C55      C        0.36380    0.05080    0.42260    1.000
    H51      H        0.41550    0.06400    0.46300    1.000
    H52      H        0.37040    0.07040    0.37010    1.000
    C56      C        0.27210    0.07210    0.45070    1.000
    C57      C        0.27430    0.14600    0.47010    1.000
    H53      H        0.32310    0.15470    0.51550    1.000
    H54      H        0.21620    0.15840    0.48730    1.000
    C58      C        0.25290    0.03500    0.52720    1.000
    C59      C        0.18490    0.99030    0.51990    1.000
    H55      H        0.14340    0.98790    0.47120    1.000
    C60      C        0.17620    0.94680    0.58570    1.000
    H56      H        0.13190    0.91480    0.57880    1.000
    C61      C        0.23450    0.95310    0.65970    1.000
    C62      C        0.29920    0.99920    0.66830    1.000
    H57      H        0.33680    0.00450    0.71880    1.000
    C63      C        0.31040    0.03910    0.60220    1.000
    C64      C        0.17270    0.72260    0.40830    1.000
    H58      H        0.18390    0.68520    0.38130    1.000
    C65      C        0.16800    0.81680    0.44550    1.000
    H59      H        0.17690    0.86050    0.44810    1.000
    C66      C        0.08830    0.67360    0.51480    1.000
    H60      H        0.12030    0.63450    0.50540    1.000
    H61      H        0.09760    0.68200    0.57370    1.000
    C67      C        0.98450    0.66520    0.48460    1.000
    C68      C        0.94610    0.60660    0.52790    1.000
    H62      H        0.98940    0.57170    0.52890    1.000
    H63      H        0.88820    0.59330    0.49610    1.000
    C69      C        0.96490    0.65630    0.38950    1.000
    C70      C        0.92300    0.70250    0.33790    1.000
    H64      H        0.90260    0.74010    0.35900    1.000
    C71      C        0.91200    0.69150    0.25370    1.000
    H65      H        0.88500    0.72290    0.21810    1.000
    C72      C        0.93880    0.63740    0.22160    1.000
    C73      C        0.98220    0.59370    0.26780    1.000
    H66      H        0.00340    0.55720    0.24480    1.000
    C74      C        0.99590    0.60340    0.35320    1.000
    N25      N        0.19990    0.77880    0.38810    1.000
    N26      N        0.12350    0.78520    0.49680    1.000
    N27      N        0.12750    0.72600    0.47170    1.000
    N28      N        0.33060    0.88480    0.37690    1.000
    N29      N        0.40630    0.94590    0.47860    1.000
    N30      N        0.36340    0.98170    0.41420    1.000
    O41      O        0.02290    0.92160    0.03150    1.000
    O42      O        0.93050    0.02660    0.05810    1.000
    O43      O        0.05790    0.00960    0.09500    1.000
    O44      O        0.08990    0.03280    0.99780    1.000
    O45      O        0.00620    0.82600    0.98550    1.000
    O46      O        0.82990    0.90340    0.09230    1.000
    O47      O        0.87090    0.00920    0.17640    1.000
    O48      O        0.15990    0.13320    0.06130    1.000
    O49      O        0.25080    0.02800    0.03340    1.000
    O50      O        0.79020    0.07740    0.05040    1.000
    O51      O        0.17900    0.79430    0.94620    1.000
    O52      O        0.19760    0.97420    0.16380    1.000
    O53      O        0.15270    0.87060    0.07670    1.000
    O54      O        0.10660    0.07970    0.19300    1.000
    O55      O        0.93820    0.12110    0.14530    1.000
    O56      O        0.03970    0.96570    0.22400    1.000
    O57      O        0.99860    0.86280    0.13910    1.000
    O58      O        0.16690    0.86670    0.24750    1.000
    O59      O        0.19940    0.06060    0.38330    1.000
    H67      H        0.14990    0.07180    0.39670    1.000
    O60      O        0.93560    0.72010    0.50390    1.000
    H68      H        0.94360    0.72560    0.55410    1.000
    Ni3      Ni       0.28189    0.80921    0.29959    1.000
    W19      W        0.10720    0.91030    0.16800    1.000
    W20      W        0.98670    0.04874    0.20626    1.000
    W21      W        0.19894    0.05971    0.12559    1.000
    W22      W        0.78709    0.99048    0.07930    1.000
    W23      W        0.90863    0.84939    0.04511    1.000
    W24      W        0.12644    0.87018    0.95840    1.000
    F9       F        0.38080    0.08150    0.61190    1.000
    F10      F        0.22880    0.91200    0.72030    1.000
    F11      F        0.04000    0.55520    0.40140    1.000
    F12      F        0.92610    0.63180    0.13780    1.000
    N31      N        0.28960    0.18380    0.39890    1.000
    N32      N        0.93130    0.62100    0.61180    1.000
    N33      N        0.99860    0.61140    0.67900    1.000
    N34      N        0.37690    0.19460    0.38300    1.000
    C75      C        0.22880    0.21150    0.34100    1.000
    H69      H        0.16500    0.21020    0.33900    1.000
    N35      N        0.22680    0.74120    0.21320    1.000
    C76      C        0.85690    0.64570    0.63760    1.000
    H70      H        0.80290    0.65620    0.60290    1.000
    C77      C        0.95640    0.63110    0.73900    1.000
    H71      H        0.98490    0.62990    0.79370    1.000
    C78      C        0.36330    0.23050    0.31650    1.000
    H72      H        0.41150    0.24720    0.29180    1.000
    N36      N        0.36900    0.84650    0.21880    1.000
    W25      W        0.10420    0.89480    0.15950    1.000
    W26      W        0.11380    0.92430    0.17640    1.000
    W27      W        0.11338    0.84920    0.96574    1.000
    C79      C        0.18160    0.44580    0.14420    1.000
    H73      H        0.21640    0.46060    0.19250    1.000
    C80      C        0.11650    0.38680    0.04850    1.000
    H74      H        0.09750    0.35050    0.01840    1.000
    C81      C        0.13620    0.55080    0.07740    1.000
    H75      H        0.08450    0.56400    0.03700    1.000
    H76      H        0.12960    0.57040    0.12990    1.000
    C82      C        0.22790    0.57210    0.04930    1.000
    C83      C        0.22570    0.64600    0.02990    1.000
    H77      H        0.17690    0.65470    0.98450    1.000
    H78      H        0.28380    0.65840    0.01270    1.000
    C84      C        0.24710    0.53500    0.97280    1.000
    C85      C        0.31510    0.49030    0.98010    1.000
    H79      H        0.35660    0.48790    0.02880    1.000
    C86      C        0.32380    0.44680    0.91430    1.000
    H80      H        0.36810    0.41480    0.92120    1.000
    C87      C        0.26550    0.45310    0.84030    1.000
    C88      C        0.20080    0.49920    0.83170    1.000
    H81      H        0.16320    0.50450    0.78120    1.000
    C89      C        0.18960    0.53910    0.89780    1.000
    C90      C        0.32730    0.22260    0.09170    1.000
    H82      H        0.31610    0.18520    0.11870    1.000
    C91      C        0.33200    0.31680    0.05450    1.000
    H83      H        0.32310    0.36050    0.05190    1.000
    C92      C        0.41170    0.17360    0.98520    1.000
    H84      H        0.37970    0.13450    0.99460    1.000
    H85      H        0.40240    0.18200    0.92630    1.000
    C93      C        0.51550    0.16520    0.01540    1.000
    C94      C        0.55390    0.10660    0.97210    1.000
    H86      H        0.51060    0.07170    0.97110    1.000
    H87      H        0.61180    0.09330    0.00390    1.000
    C95      C        0.53510    0.15630    0.11050    1.000
    C96      C        0.57700    0.20250    0.16210    1.000
    H88      H        0.59740    0.24010    0.14100    1.000
    C97      C        0.58800    0.19150    0.24630    1.000
    H89      H        0.61500    0.22290    0.28190    1.000
    C98      C        0.56120    0.13740    0.27840    1.000
    C99      C        0.51780    0.09370    0.23220    1.000
    H90      H        0.49660    0.05720    0.25520    1.000
    C100     C        0.50410    0.10340    0.14680    1.000
    N37      N        0.30010    0.27880    0.11190    1.000
    N38      N        0.37650    0.28520    0.00320    1.000
    N39      N        0.37250    0.22600    0.02830    1.000
    N40      N        0.16940    0.38480    0.12310    1.000
    N41      N        0.09370    0.44590    0.02140    1.000
    N42      N        0.13660    0.48170    0.08580    1.000
    O61      O        0.47710    0.42160    0.46850    1.000
    O62      O        0.56950    0.52660    0.44190    1.000
    O63      O        0.44210    0.50960    0.40500    1.000
    O64      O        0.41010    0.53280    0.50220    1.000
    O65      O        0.49380    0.32600    0.51450    1.000
    O66      O        0.67010    0.40340    0.40770    1.000
    O67      O        0.62910    0.50920    0.32360    1.000
    O68      O        0.34010    0.63320    0.43870    1.000
    O69      O        0.24920    0.52800    0.46660    1.000
    O70      O        0.70980    0.57740    0.44960    1.000
    O71      O        0.32100    0.29430    0.55380    1.000
    O72      O        0.30240    0.47420    0.33620    1.000
    O73      O        0.34730    0.37060    0.42330    1.000
    O74      O        0.39340    0.57970    0.30700    1.000
    O75      O        0.56180    0.62110    0.35470    1.000
    O76      O        0.46030    0.46570    0.27600    1.000
    O77      O        0.50140    0.36280    0.36090    1.000
    O78      O        0.33310    0.36670    0.25250    1.000
    O79      O        0.30060    0.56060    0.11670    1.000
    H91      H        0.35010    0.57180    0.10330    1.000
    O80      O        0.56440    0.22010    0.99610    1.000
    H92      H        0.55640    0.22560    0.94590    1.000
    Ni4      Ni       0.21811    0.30921    0.20041    1.000
    W28      W        0.39280    0.41030    0.33200    1.000
    W29      W        0.51330    0.54874    0.29374    1.000
    W30      W        0.30106    0.55971    0.37441    1.000
    W31      W        0.71291    0.49048    0.42070    1.000
    W32      W        0.59137    0.34939    0.45489    1.000
    W33      W        0.37356    0.37018    0.54160    1.000
    F13      F        0.11920    0.58150    0.88810    1.000
    F14      F        0.27120    0.41200    0.77970    1.000
    F15      F        0.46000    0.05520    0.09860    1.000
    F16      F        0.57390    0.13180    0.36220    1.000
    N43      N        0.21040    0.68380    0.10110    1.000
    N44      N        0.56870    0.12100    0.88820    1.000
    N45      N        0.50140    0.11140    0.82100    1.000
    N46      N        0.12310    0.69460    0.11700    1.000
    C101     C        0.27120    0.71150    0.15900    1.000
    H93      H        0.33500    0.71020    0.16100    1.000
    N47      N        0.27320    0.24120    0.28680    1.000
    C102     C        0.64310    0.14570    0.86240    1.000
    H94      H        0.69710    0.15620    0.89710    1.000
    C103     C        0.54360    0.13110    0.76100    1.000
    H95      H        0.51510    0.12990    0.70630    1.000
    C104     C        0.13670    0.73050    0.18350    1.000
    H96      H        0.08850    0.74720    0.20820    1.000
    N48      N        0.13100    0.34650    0.28120    1.000
    W34      W        0.39580    0.39480    0.34050    1.000
    W35      W        0.38620    0.42430    0.32360    1.000
    W36      W        0.38662    0.34920    0.53426    1.000
    Si1      Si       0.00000    0.00000    0.00000    1.000
    Si2      Si       0.50000    0.50000    0.50000    1.000
