# CIF file generated by openbabel 3.1.0, see https://openbabel.org
data_I
_chemical_name_common 'image0'
_cell_length_a 14.1192
_cell_length_b 16.6545
_cell_length_c 21.5833
_cell_angle_alpha 90
_cell_angle_beta 90
_cell_angle_gamma 90
_space_group_name_H-M_alt 'P 1'
_space_group_name_Hall 'P 1'
loop_
    _symmetry_equiv_pos_as_xyz
    x,y,z
loop_
    _atom_site_label
    _atom_site_type_symbol
    _atom_site_fract_x
    _atom_site_fract_y
    _atom_site_fract_z
    _atom_site_occupancy
    Ni1      Ni       0.87412    0.26898    0.92333    1.000
    Ni2      Ni       0.03689    0.27003    0.59868    1.000
    N1       N        0.82828    0.24661    0.83444    1.000
    C1       C        0.81292    0.24443    0.78232    1.000
    N2       N        0.90876    0.26021    0.64386    1.000
    C2       C        0.85480    0.25198    0.68262    1.000
    N3       N        0.78759    0.24196    0.72372    1.000
    N4       N        0.00951    0.28265    0.88231    1.000
    C3       C        0.06061    0.29096    0.84102    1.000
    N5       N        0.09470    0.28591    0.68718    1.000
    C4       C        0.10436    0.29129    0.73988    1.000
    N6       N        0.12621    0.30044    0.79905    1.000
    N7       N        0.92965    0.28747    0.01218    1.000
    C5       C        0.99610    0.27688    0.04147    1.000
    N8       N        0.23122    0.24300    0.05110    1.000
    C6       C        0.15260    0.25339    0.06152    1.000
    N9       N        0.06498    0.26501    0.08064    1.000
    N10      N        0.85386    0.39063    0.91399    1.000
    C7       C        0.84548    0.45899    0.90747    1.000
    N11      N        0.93269    0.64787    0.89451    1.000
    C8       C        0.88600    0.59187    0.89712    1.000
    N12      N        0.82277    0.53420    0.89886    1.000
    N13      N        0.16972    0.28185    0.55690    1.000
    C9       C        0.25000    0.29044    0.55047    1.000
    N14      N        0.46217    0.24945    0.48260    1.000
    C10      C        0.40050    0.27342    0.51205    1.000
    N15      N        0.34070    0.30698    0.55055    1.000
    N16      N        0.97840    0.89321    0.91585    1.000
    C11      C        0.95240    0.95099    0.94128    1.000
    N17      N        0.89536    0.14770    0.93890    1.000
    C12      C        0.90974    0.08249    0.95352    1.000
    N18      N        0.92532    0.01057    0.97607    1.000
    Ni3      Ni       0.62588    0.73102    0.42333    1.000
    Ni4      Ni       0.46311    0.72997    0.09868    1.000
    N19      N        0.67172    0.75339    0.33444    1.000
    C13      C        0.68708    0.75557    0.28232    1.000
    N20      N        0.59124    0.73979    0.14386    1.000
    C14      C        0.64520    0.74802    0.18262    1.000
    N21      N        0.71241    0.75804    0.22372    1.000
    N22      N        0.49049    0.71735    0.38231    1.000
    C15      C        0.43939    0.70904    0.34102    1.000
    N23      N        0.40530    0.71409    0.18718    1.000
    C16      C        0.39564    0.70871    0.23988    1.000
    N24      N        0.37379    0.69956    0.29905    1.000
    N25      N        0.57035    0.71253    0.51218    1.000
    C17      C        0.50390    0.72312    0.54147    1.000
    N26      N        0.26878    0.75700    0.55110    1.000
    C18      C        0.34740    0.74661    0.56152    1.000
    N27      N        0.43502    0.73499    0.58064    1.000
    N28      N        0.64614    0.60937    0.41399    1.000
    C19      C        0.65452    0.54101    0.40747    1.000
    N29      N        0.56731    0.35213    0.39451    1.000
    C20      C        0.61400    0.40813    0.39712    1.000
    N30      N        0.67723    0.46580    0.39886    1.000
    N31      N        0.33028    0.71815    0.05690    1.000
    C21      C        0.25000    0.70956    0.05047    1.000
    N32      N        0.03783    0.75055    0.98260    1.000
    C22      C        0.09950    0.72658    0.01205    1.000
    N33      N        0.15930    0.69302    0.05055    1.000
    N34      N        0.52160    0.10679    0.41585    1.000
    C23      C        0.54760    0.04901    0.44128    1.000
    N35      N        0.60464    0.85230    0.43890    1.000
    C24      C        0.59026    0.91751    0.45352    1.000
    N36      N        0.57468    0.98943    0.47607    1.000
    Ni5      Ni       0.12588    0.76898    0.57667    1.000
    Ni6      Ni       0.96311    0.77003    0.90132    1.000
    N37      N        0.17172    0.74661    0.66556    1.000
    C25      C        0.18708    0.74443    0.71768    1.000
    N38      N        0.09124    0.76021    0.85614    1.000
    C26      C        0.14520    0.75198    0.81738    1.000
    N39      N        0.21241    0.74196    0.77628    1.000
    N40      N        0.99049    0.78265    0.61769    1.000
    C27      C        0.93939    0.79096    0.65898    1.000
    N41      N        0.90530    0.78591    0.81282    1.000
    C28      C        0.89564    0.79129    0.76012    1.000
    N42      N        0.87379    0.80044    0.70095    1.000
    N43      N        0.07035    0.78747    0.48782    1.000
    C29      C        0.00390    0.77688    0.45853    1.000
    N44      N        0.76878    0.74300    0.44890    1.000
    C30      C        0.84740    0.75339    0.43848    1.000
    N45      N        0.93502    0.76501    0.41936    1.000
    N46      N        0.14614    0.89063    0.58601    1.000
    C31      C        0.15452    0.95899    0.59253    1.000
    N47      N        0.06731    0.14787    0.60549    1.000
    C32      C        0.11400    0.09187    0.60288    1.000
    N48      N        0.17723    0.03420    0.60114    1.000
    N49      N        0.83028    0.78185    0.94310    1.000
    C33      C        0.75000    0.79044    0.94953    1.000
    N50      N        0.53783    0.74945    0.01740    1.000
    C34      C        0.59950    0.77342    0.98795    1.000
    N51      N        0.65930    0.80698    0.94945    1.000
    N52      N        0.02160    0.39321    0.58415    1.000
    C35      C        0.04760    0.45099    0.55872    1.000
    N53      N        0.10464    0.64770    0.56110    1.000
    C36      C        0.09026    0.58249    0.54648    1.000
    N54      N        0.07468    0.51057    0.52393    1.000
    Ni7      Ni       0.37412    0.23102    0.07667    1.000
    Ni8      Ni       0.53689    0.22997    0.40132    1.000
    N55      N        0.32828    0.25339    0.16556    1.000
    C37      C        0.31292    0.25557    0.21768    1.000
    N56      N        0.40876    0.23979    0.35614    1.000
    C38      C        0.35480    0.24802    0.31738    1.000
    N57      N        0.28759    0.25804    0.27628    1.000
    N58      N        0.50951    0.21735    0.11769    1.000
    C39      C        0.56061    0.20904    0.15898    1.000
    N59      N        0.59470    0.21409    0.31282    1.000
    C40      C        0.60436    0.20871    0.26012    1.000
    N60      N        0.62621    0.19956    0.20095    1.000
    N61      N        0.42965    0.21253    0.98782    1.000
    C41      C        0.49610    0.22312    0.95853    1.000
    N62      N        0.73122    0.25700    0.94890    1.000
    C42      C        0.65260    0.24661    0.93848    1.000
    N63      N        0.56498    0.23499    0.91936    1.000
    N64      N        0.35386    0.10937    0.08601    1.000
    C43      C        0.34548    0.04101    0.09253    1.000
    N65      N        0.43269    0.85213    0.10549    1.000
    C44      C        0.38600    0.90813    0.10288    1.000
    N66      N        0.32277    0.96580    0.10114    1.000
    N67      N        0.66972    0.21815    0.44310    1.000
    C45      C        0.75000    0.20956    0.44953    1.000
    N68      N        0.96217    0.25055    0.51740    1.000
    C46      C        0.90050    0.22658    0.48795    1.000
    N69      N        0.84070    0.19302    0.44945    1.000
    N70      N        0.47840    0.60679    0.08415    1.000
    C47      C        0.45240    0.54901    0.05872    1.000
    N71      N        0.39536    0.35230    0.06110    1.000
    C48      C        0.40974    0.41751    0.04648    1.000
    N72      N        0.42532    0.48943    0.02393    1.000
