# CIF file generated by openbabel 3.1.0, see https://openbabel.org
data_I
_chemical_name_common 'image0'
_cell_length_a 15.847
_cell_length_b 9.685
_cell_length_c 18.333
_cell_angle_alpha 90
_cell_angle_beta 115.5
_cell_angle_gamma 90
_space_group_name_H-M_alt 'P 1'
_space_group_name_Hall 'P 1'
loop_
    _symmetry_equiv_pos_as_xyz
    x,y,z
loop_
    _atom_site_label
    _atom_site_type_symbol
    _atom_site_fract_x
    _atom_site_fract_y
    _atom_site_fract_z
    _atom_site_occupancy
    Zn1      Zn       0.41800    0.12490    0.58610    1.000
    O1       O        0.35840    0.28470    0.50240    1.000
    O2       O        0.39360    0.96500    0.50250    1.000
    O3       O        0.46690    0.26260    0.68270    1.000
    O4       O        0.46620    0.98610    0.68350    1.000
    O5       O        0.22170    0.38550    0.43120    1.000
    O6       O        0.45920    0.86450    0.43130    1.000
    C1       C        0.27270    0.30070    0.48080    1.000
    C2       C        0.45750    0.95010    0.48070    1.000
    Zn2      Zn       0.91800    0.62490    0.58610    1.000
    O7       O        0.85840    0.78470    0.50240    1.000
    O8       O        0.89360    0.46500    0.50250    1.000
    O9       O        0.96690    0.76260    0.68270    1.000
    O10      O        0.96620    0.48610    0.68350    1.000
    O11      O        0.72170    0.88550    0.43120    1.000
    O12      O        0.95920    0.36450    0.43130    1.000
    C3       C        0.77270    0.80070    0.48080    1.000
    C4       C        0.95750    0.45010    0.48070    1.000
    Zn3      Zn       0.58200    0.12490    0.91390    1.000
    O13      O        0.64160    0.28470    0.99760    1.000
    O14      O        0.60640    0.96500    0.99750    1.000
    O15      O        0.53310    0.26260    0.81730    1.000
    O16      O        0.53380    0.98610    0.81650    1.000
    O17      O        0.77830    0.38550    0.06880    1.000
    O18      O        0.54080    0.86450    0.06870    1.000
    C5       C        0.72730    0.30070    0.01920    1.000
    C6       C        0.54250    0.95010    0.01930    1.000
    Zn4      Zn       0.08200    0.62490    0.91390    1.000
    O19      O        0.14160    0.78470    0.99760    1.000
    O20      O        0.10640    0.46500    0.99750    1.000
    O21      O        0.03310    0.76260    0.81730    1.000
    O22      O        0.03380    0.48610    0.81650    1.000
    O23      O        0.27830    0.88550    0.06880    1.000
    O24      O        0.04080    0.36450    0.06870    1.000
    C7       C        0.22730    0.80070    0.01920    1.000
    C8       C        0.04250    0.45010    0.01930    1.000
    Zn5      Zn       0.58200    0.87510    0.41390    1.000
    O25      O        0.64160    0.71530    0.49760    1.000
    O26      O        0.60640    0.03500    0.49750    1.000
    O27      O        0.53310    0.73740    0.31730    1.000
    O28      O        0.53380    0.01390    0.31650    1.000
    O29      O        0.77830    0.61450    0.56880    1.000
    O30      O        0.54080    0.13550    0.56870    1.000
    C9       C        0.72730    0.69930    0.51920    1.000
    C10      C        0.54250    0.04990    0.51930    1.000
    Zn6      Zn       0.08200    0.37510    0.41390    1.000
    O31      O        0.14160    0.21530    0.49760    1.000
    O32      O        0.10640    0.53500    0.49750    1.000
    O33      O        0.03310    0.23740    0.31730    1.000
    O34      O        0.03380    0.51390    0.31650    1.000
    O35      O        0.27830    0.11450    0.56880    1.000
    O36      O        0.04080    0.63550    0.56870    1.000
    C11      C        0.22730    0.19930    0.51920    1.000
    C12      C        0.04250    0.54990    0.51930    1.000
    Zn7      Zn       0.41800    0.87510    0.08610    1.000
    O37      O        0.35840    0.71530    0.00240    1.000
    O38      O        0.39360    0.03500    0.00250    1.000
    O39      O        0.46690    0.73740    0.18270    1.000
    O40      O        0.46620    0.01390    0.18350    1.000
    O41      O        0.22170    0.61450    0.93120    1.000
    O42      O        0.45920    0.13550    0.93130    1.000
    C13      C        0.27270    0.69930    0.98080    1.000
    C14      C        0.45750    0.04990    0.98070    1.000
    Zn8      Zn       0.91800    0.37510    0.08610    1.000
    O43      O        0.85840    0.21530    0.00240    1.000
    O44      O        0.89360    0.53500    0.00250    1.000
    O45      O        0.96690    0.23740    0.18270    1.000
    O46      O        0.96620    0.51390    0.18350    1.000
    O47      O        0.72170    0.11450    0.93120    1.000
    O48      O        0.95920    0.63550    0.93130    1.000
    C15      C        0.77270    0.19930    0.98080    1.000
    C16      C        0.95750    0.54990    0.98070    1.000
    C17      C        0.50000    0.20470    0.75000    1.000
    C18      C        0.50000    0.04400    0.75000    1.000
    C19      C        0.00000    0.70470    0.75000    1.000
    C20      C        0.00000    0.54400    0.75000    1.000
    C21      C        0.50000    0.79530    0.25000    1.000
    C22      C        0.50000    0.95600    0.25000    1.000
    C23      C        0.00000    0.29530    0.25000    1.000
    C24      C        0.00000    0.45600    0.25000    1.000
