# CIF file generated by openbabel 3.1.0, see https://openbabel.org
data_I
_chemical_name_common 'REYBAA_clean'
_cell_length_a 8.158
_cell_length_b 17.418
_cell_length_c 17.558
_cell_angle_alpha 90
_cell_angle_beta 98.28
_cell_angle_gamma 90
_space_group_name_H-M_alt 'P 1'
_space_group_name_Hall 'P 1'
loop_
    _symmetry_equiv_pos_as_xyz
    x,y,z
loop_
    _atom_site_label
    _atom_site_type_symbol
    _atom_site_fract_x
    _atom_site_fract_y
    _atom_site_fract_z
    _atom_site_occupancy
    Zn1      Zn       0.75419    0.30583    0.75174    1.000
    Zn2      Zn       0.74581    0.80583    0.74826    1.000
    Zn3      Zn       0.24581    0.69417    0.24826    1.000
    Zn4      Zn       0.25419    0.19417    0.25174    1.000
    H1       H        0.05090    0.27210    0.97470    1.000
    H2       H        0.49420    0.33350    0.08630    1.000
    H3       H        0.34910    0.40280    0.86830    1.000
    H4       H        0.67470    0.43460    0.07840    1.000
    H5       H        0.75100    0.36020    0.04710    1.000
    H6       H        0.00590    0.43770    0.11540    1.000
    H7       H        0.76860    0.49320    0.90880    1.000
    H8       H        0.41440    0.24020    0.69470    1.000
    H9       H        0.20070    0.17880    0.73860    1.000
    H10      H        0.48240    0.16570    0.94590    1.000
    H11      H        0.68470    0.23120    0.89620    1.000
    H12      H        0.73080    0.09040    0.78240    1.000
    H13      H        0.62770    0.96980    0.74730    1.000
    H14      H        0.06580    0.87990    0.78890    1.000
    H15      H        0.18220    0.99620    0.82730    1.000
    H16      H        0.44910    0.77210    0.52530    1.000
    H17      H        0.00580    0.83350    0.41370    1.000
    H18      H        0.15090    0.90280    0.63170    1.000
    H19      H        0.82530    0.93460    0.42160    1.000
    H20      H        0.74900    0.86020    0.45290    1.000
    H21      H        0.49410    0.93770    0.38460    1.000
    H22      H        0.73140    0.99320    0.59120    1.000
    H23      H        0.08560    0.74020    0.80530    1.000
    H24      H        0.29930    0.67880    0.76140    1.000
    H25      H        0.01760    0.66570    0.55410    1.000
    H26      H        0.81530    0.73120    0.60380    1.000
    H27      H        0.76920    0.59040    0.71760    1.000
    H28      H        0.87230    0.46980    0.75270    1.000
    H29      H        0.43420    0.37990    0.71110    1.000
    H30      H        0.31780    0.49620    0.67270    1.000
    H31      H        0.94910    0.72790    0.02530    1.000
    H32      H        0.50580    0.66650    0.91370    1.000
    H33      H        0.65090    0.59720    0.13170    1.000
    H34      H        0.32530    0.56540    0.92160    1.000
    H35      H        0.24900    0.63980    0.95290    1.000
    H36      H        0.99410    0.56230    0.88460    1.000
    H37      H        0.23140    0.50680    0.09120    1.000
    H38      H        0.58560    0.75980    0.30530    1.000
    H39      H        0.79930    0.82120    0.26140    1.000
    H40      H        0.51760    0.83430    0.05410    1.000
    H41      H        0.31530    0.76880    0.10380    1.000
    H42      H        0.26920    0.90960    0.21760    1.000
    H43      H        0.37230    0.03020    0.25270    1.000
    H44      H        0.93420    0.12010    0.21110    1.000
    H45      H        0.81780    0.00380    0.17270    1.000
    H46      H        0.55090    0.22790    0.47470    1.000
    H47      H        0.99420    0.16650    0.58630    1.000
    H48      H        0.84910    0.09720    0.36830    1.000
    H49      H        0.17470    0.06540    0.57840    1.000
    H50      H        0.25100    0.13980    0.54710    1.000
    H51      H        0.50590    0.06230    0.61540    1.000
    H52      H        0.26860    0.00680    0.40880    1.000
    H53      H        0.91440    0.25980    0.19470    1.000
    H54      H        0.70070    0.32120    0.23860    1.000
    H55      H        0.98240    0.33430    0.44590    1.000
    H56      H        0.18470    0.26880    0.39620    1.000
    H57      H        0.23080    0.40960    0.28240    1.000
    H58      H        0.12770    0.53020    0.24730    1.000
    H59      H        0.56580    0.62010    0.28890    1.000
    H60      H        0.68220    0.50380    0.32730    1.000
    C1       C        0.05700    0.33860    0.83960    1.000
    C2       C        0.18080    0.33720    0.91150    1.000
    C3       C        0.15090    0.29780    0.97520    1.000
    C4       C        0.26830    0.29560    0.04040    1.000
    C5       C        0.23120    0.25280    0.11080    1.000
    C6       C        0.41620    0.33390    0.04210    1.000
    C7       C        0.44730    0.37320    0.97680    1.000
    C8       C        0.32890    0.37560    0.91150    1.000
    C9       C        0.71650    0.41240    0.03430    1.000
    C10      C        0.86280    0.45870    0.01580    1.000
    C11      C        0.00250    0.46310    0.06850    1.000
    C12      C        0.86180    0.49600    0.94600    1.000
    C13      C        0.42670    0.22600    0.74620    1.000
    C14      C        0.29770    0.18870    0.77190    1.000
    C15      C        0.31350    0.16580    0.84860    1.000
    C16      C        0.46460    0.18150    0.89480    1.000
    C17      C        0.58630    0.22030    0.86430    1.000
    C18      C        0.97140    0.05700    0.81130    1.000
    C19      C        0.80160    0.04830    0.78540    1.000
    C20      C        0.74050    0.97510    0.76400    1.000
    C21      C        0.99760    0.92270    0.78880    1.000
    C22      C        0.06860    0.99270    0.81170    1.000
    C23      C        0.44300    0.83860    0.66040    1.000
    C24      C        0.31920    0.83720    0.58850    1.000
    C25      C        0.34910    0.79780    0.52480    1.000
    C26      C        0.23170    0.79560    0.45960    1.000
    C27      C        0.26880    0.75280    0.38920    1.000
    C28      C        0.08380    0.83390    0.45790    1.000
    C29      C        0.05270    0.87320    0.52320    1.000
    C30      C        0.17110    0.87560    0.58850    1.000
    C31      C        0.78350    0.91240    0.46570    1.000
    C32      C        0.63720    0.95870    0.48420    1.000
    C33      C        0.49750    0.96310    0.43150    1.000
    C34      C        0.63820    0.99600    0.55400    1.000
    C35      C        0.07330    0.72600    0.75380    1.000
    C36      C        0.20230    0.68870    0.72810    1.000
    C37      C        0.18650    0.66580    0.65140    1.000
    C38      C        0.03540    0.68150    0.60520    1.000
    C39      C        0.91370    0.72030    0.63570    1.000
    C40      C        0.52860    0.55700    0.68870    1.000
    C41      C        0.69840    0.54830    0.71460    1.000
    C42      C        0.75950    0.47510    0.73600    1.000
    C43      C        0.50240    0.42270    0.71120    1.000
    C44      C        0.43140    0.49270    0.68830    1.000
    C45      C        0.94300    0.66140    0.16040    1.000
    C46      C        0.81920    0.66280    0.08850    1.000
    C47      C        0.84910    0.70220    0.02480    1.000
    C48      C        0.73170    0.70440    0.95960    1.000
    C49      C        0.76880    0.74720    0.88920    1.000
    C50      C        0.58380    0.66610    0.95790    1.000
    C51      C        0.55270    0.62680    0.02320    1.000
    C52      C        0.67110    0.62440    0.08850    1.000
    C53      C        0.28350    0.58760    0.96570    1.000
    C54      C        0.13720    0.54130    0.98420    1.000
    C55      C        0.99750    0.53690    0.93150    1.000
    C56      C        0.13820    0.50400    0.05400    1.000
    C57      C        0.57330    0.77400    0.25380    1.000
    C58      C        0.70230    0.81130    0.22810    1.000
    C59      C        0.68650    0.83420    0.15140    1.000
    C60      C        0.53540    0.81850    0.10520    1.000
    C61      C        0.41370    0.77970    0.13570    1.000
    C62      C        0.02860    0.94300    0.18870    1.000
    C63      C        0.19840    0.95170    0.21460    1.000
    C64      C        0.25950    0.02490    0.23600    1.000
    C65      C        0.00240    0.07730    0.21120    1.000
    C66      C        0.93140    0.00730    0.18830    1.000
    C67      C        0.55700    0.16140    0.33960    1.000
    C68      C        0.68080    0.16280    0.41150    1.000
    C69      C        0.65090    0.20220    0.47520    1.000
    C70      C        0.76830    0.20440    0.54040    1.000
    C71      C        0.73120    0.24720    0.61080    1.000
    C72      C        0.91620    0.16610    0.54210    1.000
    C73      C        0.94730    0.12680    0.47680    1.000
    C74      C        0.82890    0.12440    0.41150    1.000
    C75      C        0.21650    0.08760    0.53430    1.000
    C76      C        0.36280    0.04130    0.51580    1.000
    C77      C        0.50250    0.03690    0.56850    1.000
    C78      C        0.36180    0.00400    0.44600    1.000
    C79      C        0.92670    0.27400    0.24620    1.000
    C80      C        0.79770    0.31130    0.27190    1.000
    C81      C        0.81350    0.33420    0.34860    1.000
    C82      C        0.96460    0.31850    0.39480    1.000
    C83      C        0.08630    0.27970    0.36430    1.000
    C84      C        0.47140    0.44300    0.31130    1.000
    C85      C        0.30160    0.45170    0.28540    1.000
    C86      C        0.24050    0.52490    0.26400    1.000
    C87      C        0.49760    0.57730    0.28880    1.000
    C88      C        0.56860    0.50730    0.31170    1.000
    N1       N        0.57030    0.24340    0.79060    1.000
    N2       N        0.18960    0.12930    0.87930    1.000
    N3       N        0.03290    0.12680    0.83670    1.000
    N4       N        0.83280    0.91410    0.76640    1.000
    N5       N        0.92970    0.74340    0.70940    1.000
    N6       N        0.31040    0.62930    0.62070    1.000
    N7       N        0.46710    0.62680    0.66330    1.000
    N8       N        0.66720    0.41410    0.73360    1.000
    N9       N        0.42970    0.75660    0.20940    1.000
    N10      N        0.81040    0.87070    0.12070    1.000
    N11      N        0.96710    0.87320    0.16330    1.000
    N12      N        0.16720    0.08590    0.23360    1.000
    N13      N        0.07030    0.25660    0.29060    1.000
    N14      N        0.68960    0.37070    0.37930    1.000
    N15      N        0.53290    0.37320    0.33670    1.000
    N16      N        0.33280    0.58590    0.26640    1.000
    O1       O        0.92670    0.29600    0.84070    1.000
    O2       O        0.08030    0.37760    0.78370    1.000
    O3       O        0.09610    0.21890    0.10980    1.000
    O4       O        0.33970    0.25320    0.16990    1.000
    O5       O        0.59050    0.41230    0.97030    1.000
    O6       O        0.57330    0.79600    0.65930    1.000
    O7       O        0.41970    0.87760    0.71630    1.000
    O8       O        0.40390    0.71890    0.39020    1.000
    O9       O        0.16030    0.75320    0.33010    1.000
    O10      O        0.90950    0.91230    0.52970    1.000
    O11      O        0.07330    0.70400    0.15930    1.000
    O12      O        0.91970    0.62240    0.21630    1.000
    O13      O        0.90390    0.78110    0.89020    1.000
    O14      O        0.66030    0.74680    0.83010    1.000
    O15      O        0.40950    0.58770    0.02970    1.000
    O16      O        0.42670    0.20400    0.34070    1.000
    O17      O        0.58030    0.12240    0.28370    1.000
    O18      O        0.59610    0.28110    0.60980    1.000
    O19      O        0.83970    0.24680    0.66990    1.000
    O20      O        0.09050    0.08770    0.47030    1.000
