# CIF file generated by openbabel 3.1.0, see https://openbabel.org
data_I
_chemical_name_common 'image0'
_cell_length_a 15.189
_cell_length_b 15.232
_cell_length_c 23.855
_cell_angle_alpha 85.89
_cell_angle_beta 79.971
_cell_angle_gamma 86.842
_space_group_name_H-M_alt 'P 1'
_space_group_name_Hall 'P 1'
loop_
    _symmetry_equiv_pos_as_xyz
    x,y,z
loop_
    _atom_site_label
    _atom_site_type_symbol
    _atom_site_fract_x
    _atom_site_fract_y
    _atom_site_fract_z
    _atom_site_occupancy
    C1       C        0.50060    0.01000    0.77610    1.000
    C2       C        0.59980    0.99050    0.75190    1.000
    C3       C        0.62330    0.93900    0.70670    1.000
    H1       H        0.57990    0.91040    0.69280    1.000
    C4       C        0.71210    0.92990    0.68190    1.000
    H2       H        0.72740    0.89560    0.65060    1.000
    C5       C        0.77890    0.96980    0.70170    1.000
    C6       C        0.75570    0.01800    0.74960    1.000
    H3       H        0.80010    0.04110    0.76570    1.000
    C7       C        0.66590    0.03200    0.77370    1.000
    H4       H        0.65000    0.06850    0.80390    1.000
    C8       C        0.93110    0.00840    0.69010    1.000
    C9       C        0.99910    0.96750    0.70940    1.000
    H5       H        0.00120    0.90640    0.71520    1.000
    C10      C        0.06640    0.01490    0.72070    1.000
    H6       H        0.11430    0.98470    0.73410    1.000
    C11      C        0.06720    0.10320    0.71350    1.000
    C12      C        0.99510    0.14370    0.69210    1.000
    H7       H        0.99280    0.20460    0.68540    1.000
    C13      C        0.92790    0.09710    0.68060    1.000
    H8       H        0.88000    0.12560    0.66630    1.000
    C14      C        0.13790    0.15430    0.73020    1.000
    C15      C        0.32590    0.97610    0.68090    1.000
    C16      C        0.32300    0.93160    0.62790    1.000
    C17      C        0.27090    0.86290    0.62870    1.000
    H9       H        0.23850    0.84120    0.66320    1.000
    C18      C        0.26490    0.82480    0.58000    1.000
    H10      H        0.22710    0.77850    0.58100    1.000
    C19      C        0.31440    0.85440    0.52950    1.000
    C20      C        0.36600    0.92070    0.52570    1.000
    H11      H        0.39730    0.94120    0.49060    1.000
    C21      C        0.37350    0.96030    0.57550    1.000
    H12      H        0.41230    0.00590    0.57390    1.000
    C22      C        0.37970    0.79950    0.44250    1.000
    C23      C        0.45120    0.74780    0.45980    1.000
    H13      H        0.44790    0.72500    0.49730    1.000
    C24      C        0.52460    0.73220    0.42040    1.000
    H14      H        0.57150    0.69720    0.43150    1.000
    C25      C        0.53350    0.76560    0.36450    1.000
    C26      C        0.46200    0.81310    0.35020    1.000
    H15      H        0.46620    0.83590    0.31270    1.000
    C27      C        0.38170    0.83090    0.38760    1.000
    H16      H        0.33320    0.86200    0.37560    1.000
    C28      C        0.61880    0.74810    0.32510    1.000
    C29      C        0.29930    0.93900    0.88950    1.000
    C30      C        0.26610    0.96520    0.94870    1.000
    C31      C        0.29150    0.91400    0.99300    1.000
    H17      H        0.32630    0.86250    0.98590    1.000
    C32      C        0.26510    0.93880    0.04890    1.000
    H18      H        0.28230    0.90410    0.07910    1.000
    C33      C        0.21330    0.01530    0.05890    1.000
    C34      C        0.18710    0.06700    0.01530    1.000
    H19      H        0.15330    0.11900    0.02250    1.000
    C35      C        0.21210    0.04070    0.95920    1.000
    H20      H        0.19240    0.07400    0.92910    1.000
    C36      C        0.10940    0.08160    0.13130    1.000
    C37      C        0.03220    0.04390    0.12790    1.000
    H21      H        0.03270    0.98920    0.11280    1.000
    C38      C        0.95080    0.08960    0.14780    1.000
    H22      H        0.89700    0.06550    0.14490    1.000
    C39      C        0.94990    0.16900    0.17120    1.000
    C40      C        0.03070    0.20470    0.17290    1.000
    H23      H        0.03140    0.25890    0.18850    1.000
    C41      C        0.10990    0.16170    0.15220    1.000
    H24      H        0.16390    0.18760    0.15240    1.000
    C42      C        0.86330    0.21280    0.19680    1.000
    C43      C        0.27490    0.65570    0.87760    1.000
    C44      C        0.29670    0.66660    0.93470    1.000
    C45      C        0.22900    0.66630    0.98170    1.000
    H25      H        0.17020    0.65960    0.97720    1.000
    C46      C        0.24850    0.67580    0.03420    1.000
    H26      H        0.20330    0.67370    0.06600    1.000
    C47      C        0.33440    0.68840    0.04070    1.000
    C48      C        0.40590    0.68920    0.99540    1.000
    H27      H        0.46440    0.69560    0.00080    1.000
    C49      C        0.38500    0.67990    0.94200    1.000
    H28      H        0.43020    0.68260    0.91020    1.000
    C50      C        0.41880    0.66880    0.11780    1.000
    C51      C        0.44960    0.58540    0.10870    1.000
    H29      H        0.42660    0.55260    0.08360    1.000
    C52      C        0.51590    0.54970    0.13740    1.000
    H30      H        0.53680    0.49170    0.13220    1.000
    C53      C        0.55260    0.59990    0.17470    1.000
    C54      C        0.52030    0.68600    0.17980    1.000
    H31      H        0.54510    0.72090    0.20290    1.000
    C55      C        0.45430    0.72220    0.15290    1.000
    H32      H        0.43340    0.78020    0.15760    1.000
    C56      C        0.62730    0.56200    0.20500    1.000
    C57      C        0.23510    0.56190    0.65780    1.000
    C58      C        0.25980    0.55050    0.59460    1.000
    C59      C        0.32780    0.49230    0.57380    1.000
    H33      H        0.35830    0.45880    0.59900    1.000
    C60      C        0.35140    0.48260    0.51660    1.000
    H34      H        0.39940    0.44500    0.50300    1.000
    C61      C        0.30410    0.52840    0.47950    1.000
    C62      C        0.23470    0.58740    0.49790    1.000
    H35      H        0.20310    0.61940    0.47260    1.000
    C63      C        0.21460    0.59630    0.55650    1.000
    H36      H        0.16800    0.63540    0.57040    1.000
    C64      C        0.38220    0.45820    0.39850    1.000
    C65      C        0.37060    0.36890    0.40140    1.000
    H37      H        0.31860    0.34650    0.42290    1.000
    C66      C        0.43350    0.31260    0.37360    1.000
    H38      H        0.42360    0.25260    0.37630    1.000
    C67      C        0.51040    0.34280    0.34200    1.000
    C68      C        0.52490    0.42990    0.33750    1.000
    H39      H        0.57690    0.45150    0.31560    1.000
    C69      C        0.45820    0.48830    0.36720    1.000
    H40      H        0.46770    0.54830    0.36470    1.000
    C70      C        0.57360    0.28230    0.30720    1.000
    C71      C        0.06470    0.46090    0.79630    1.000
    C72      C        0.98590    0.49540    0.83510    1.000
    C73      C        0.90250    0.46830    0.83060    1.000
    H41      H        0.89690    0.42940    0.80320    1.000
    C74      C        0.82860    0.49780    0.86570    1.000
    H42      H        0.77270    0.47910    0.86200    1.000
    C75      C        0.83520    0.55600    0.90740    1.000
    C76      C        0.91810    0.58520    0.91170    1.000
    H43      H        0.92340    0.62470    0.93870    1.000
    C77      C        0.99240    0.55540    0.87570    1.000
    H44      H        0.04820    0.57560    0.87830    1.000
    C78      C        0.75190    0.62190    0.99140    1.000
    C79      C        0.70920    0.70050    0.99940    1.000
    H45      H        0.68100    0.72860    0.97100    1.000
    C80      C        0.70750    0.73940    0.05020    1.000
    H46      H        0.67710    0.79360    0.05600    1.000
    C81      C        0.74990    0.69930    0.09210    1.000
    C82      C        0.78930    0.61720    0.08400    1.000
    H47      H        0.81550    0.58780    0.11290    1.000
    C83      C        0.79060    0.57690    0.03330    1.000
    H48      H        0.81710    0.52090    0.02800    1.000
    C84      C        0.75200    0.74350    0.14720    1.000
    Dy1      Dy       0.32704    0.08712    0.77615    1.000
    Dy2      Dy       0.35613    0.83129    0.78788    1.000
    Dy3      Dy       0.24010    0.60743    0.77000    1.000
    Dy4      Dy       0.21394    0.36015    0.73125    1.000
    O1       O        0.47630    0.08230    0.79850    1.000
    O2       O        0.44280    0.95630    0.76960    1.000
    O3       O        0.86470    0.95810    0.67630    1.000
    O4       O        0.14110    0.23500    0.71380    1.000
    O5       O        0.19150    0.11290    0.75940    1.000
    O6       O        0.35850    0.05040    0.67870    1.000
    O7       O        0.29450    0.93850    0.72920    1.000
    O8       O        0.30380    0.81650    0.48080    1.000
    O9       O        0.62840    0.78770    0.27550    1.000
    O10      O        0.67650    0.69210    0.34020    1.000
    O11      O        0.27800    0.98970    0.84900    1.000
    O12      O        0.34350    0.86810    0.88130    1.000
    O13      O        0.19180    0.04030    0.11450    1.000
    O14      O        0.86790    0.28400    0.21860    1.000
    O15      O        0.79420    0.17540    0.19120    1.000
    O16      O        0.32420    0.69150    0.83330    1.000
    O17      O        0.20900    0.61420    0.87170    1.000
    O18      O        0.34600    0.70790    0.09450    1.000
    O19      O        0.65990    0.61140    0.23440    1.000
    O20      O        0.64940    0.48260    0.20080    1.000
    O21      O        0.18990    0.62790    0.67550    1.000
    O22      O        0.26550    0.50300    0.69170    1.000
    O23      O        0.31980    0.52160    0.42130    1.000
    O24      O        0.64930    0.30790    0.28300    1.000
    O25      O        0.55260    0.20670    0.30090    1.000
    O26      O        0.14110    0.49530    0.79480    1.000
    O27      O        0.06020    0.39660    0.76930    1.000
    O28      O        0.75240    0.58520    0.93900    1.000
    O29      O        0.79870    0.70930    0.17990    1.000
    O30      O        0.70630    0.81480    0.15390    1.000
    C85      C        0.49940    0.99000    0.22390    1.000
    C86      C        0.40020    0.00950    0.24810    1.000
    C87      C        0.37670    0.06100    0.29330    1.000
    H49      H        0.42010    0.08960    0.30720    1.000
    C88      C        0.28790    0.07010    0.31810    1.000
    H50      H        0.27260    0.10440    0.34940    1.000
    C89      C        0.22110    0.03020    0.29830    1.000
    C90      C        0.24430    0.98200    0.25040    1.000
    H51      H        0.19990    0.95890    0.23430    1.000
    C91      C        0.33410    0.96800    0.22630    1.000
    H52      H        0.35000    0.93150    0.19610    1.000
    C92      C        0.06890    0.99160    0.30990    1.000
    C93      C        0.00090    0.03250    0.29060    1.000
    H53      H        0.99880    0.09360    0.28480    1.000
    C94      C        0.93360    0.98510    0.27930    1.000
    H54      H        0.88570    0.01530    0.26590    1.000
    C95      C        0.93280    0.89680    0.28650    1.000
    C96      C        0.00490    0.85630    0.30790    1.000
    H55      H        0.00720    0.79540    0.31460    1.000
    C97      C        0.07210    0.90290    0.31940    1.000
    H56      H        0.12000    0.87440    0.33370    1.000
    C98      C        0.86210    0.84570    0.26980    1.000
    C99      C        0.67410    0.02390    0.31910    1.000
    C100     C        0.67700    0.06840    0.37210    1.000
    C101     C        0.72910    0.13710    0.37130    1.000
    H57      H        0.76150    0.15880    0.33680    1.000
    C102     C        0.73510    0.17520    0.42000    1.000
    H58      H        0.77290    0.22150    0.41900    1.000
    C103     C        0.68560    0.14560    0.47050    1.000
    C104     C        0.63400    0.07930    0.47430    1.000
    H59      H        0.60270    0.05880    0.50940    1.000
    C105     C        0.62650    0.03970    0.42450    1.000
    H60      H        0.58770    0.99410    0.42610    1.000
    C106     C        0.62030    0.20050    0.55750    1.000
    C107     C        0.54880    0.25220    0.54020    1.000
    H61      H        0.55210    0.27500    0.50270    1.000
    C108     C        0.47540    0.26780    0.57960    1.000
    H62      H        0.42850    0.30280    0.56850    1.000
    C109     C        0.46650    0.23440    0.63550    1.000
    C110     C        0.53800    0.18690    0.64980    1.000
    H63      H        0.53380    0.16410    0.68730    1.000
    C111     C        0.61830    0.16910    0.61240    1.000
    H64      H        0.66680    0.13800    0.62440    1.000
    C112     C        0.38120    0.25190    0.67490    1.000
    C113     C        0.70070    0.06100    0.11050    1.000
    C114     C        0.73390    0.03480    0.05130    1.000
    C115     C        0.70850    0.08600    0.00700    1.000
    H65      H        0.67370    0.13750    0.01410    1.000
    C116     C        0.73490    0.06120    0.95110    1.000
    H66      H        0.71770    0.09590    0.92090    1.000
    C117     C        0.78670    0.98470    0.94110    1.000
    C118     C        0.81290    0.93300    0.98470    1.000
    H67      H        0.84670    0.88100    0.97750    1.000
    C119     C        0.78790    0.95930    0.04080    1.000
    H68      H        0.80760    0.92600    0.07090    1.000
    C120     C        0.89060    0.91840    0.86870    1.000
    C121     C        0.96780    0.95610    0.87210    1.000
    H69      H        0.96730    0.01080    0.88720    1.000
    C122     C        0.04920    0.91040    0.85220    1.000
    H70      H        0.10300    0.93450    0.85510    1.000
    C123     C        0.05010    0.83100    0.82880    1.000
    C124     C        0.96930    0.79530    0.82710    1.000
    H71      H        0.96860    0.74110    0.81150    1.000
    C125     C        0.89010    0.83830    0.84780    1.000
    H72      H        0.83610    0.81240    0.84760    1.000
    C126     C        0.13670    0.78720    0.80320    1.000
    C127     C        0.72510    0.34430    0.12240    1.000
    C128     C        0.70330    0.33340    0.06530    1.000
    C129     C        0.77100    0.33370    0.01830    1.000
    H73      H        0.82980    0.34040    0.02280    1.000
    C130     C        0.75150    0.32420    0.96580    1.000
    H74      H        0.79670    0.32630    0.93400    1.000
    C131     C        0.66560    0.31160    0.95930    1.000
    C132     C        0.59410    0.31080    0.00460    1.000
    H75      H        0.53560    0.30440    0.99920    1.000
    C133     C        0.61500    0.32010    0.05800    1.000
    H76      H        0.56980    0.31740    0.08980    1.000
    C134     C        0.58120    0.33120    0.88220    1.000
    C135     C        0.55040    0.41460    0.89130    1.000
    H77      H        0.57340    0.44740    0.91640    1.000
    C136     C        0.48410    0.45030    0.86260    1.000
    H78      H        0.46320    0.50830    0.86780    1.000
    C137     C        0.44740    0.40010    0.82530    1.000
    C138     C        0.47970    0.31400    0.82020    1.000
    H79      H        0.45490    0.27910    0.79710    1.000
    C139     C        0.54570    0.27780    0.84710    1.000
    H80      H        0.56660    0.21980    0.84240    1.000
    C140     C        0.37270    0.43800    0.79500    1.000
    C141     C        0.76490    0.43810    0.34220    1.000
    C142     C        0.74020    0.44950    0.40540    1.000
    C143     C        0.67220    0.50770    0.42620    1.000
    H81      H        0.64170    0.54120    0.40100    1.000
    C144     C        0.64860    0.51740    0.48340    1.000
    H82      H        0.60060    0.55500    0.49700    1.000
    C145     C        0.69590    0.47160    0.52050    1.000
    C146     C        0.76530    0.41260    0.50210    1.000
    H83      H        0.79690    0.38060    0.52740    1.000
    C147     C        0.78540    0.40370    0.44350    1.000
    H84      H        0.83200    0.36460    0.42960    1.000
    C148     C        0.61780    0.54180    0.60150    1.000
    C149     C        0.62940    0.63110    0.59860    1.000
    H85      H        0.68140    0.65350    0.57710    1.000
    C150     C        0.56650    0.68740    0.62640    1.000
    H86      H        0.57640    0.74740    0.62370    1.000
    C151     C        0.48960    0.65720    0.65800    1.000
    C152     C        0.47510    0.57010    0.66250    1.000
    H87      H        0.42310    0.54850    0.68440    1.000
    C153     C        0.54180    0.51170    0.63280    1.000
    H88      H        0.53230    0.45170    0.63530    1.000
    C154     C        0.42640    0.71770    0.69280    1.000
    C155     C        0.93530    0.53910    0.20370    1.000
    C156     C        0.01410    0.50460    0.16490    1.000
    C157     C        0.09750    0.53170    0.16940    1.000
    H89      H        0.10310    0.57060    0.19680    1.000
    C158     C        0.17140    0.50220    0.13430    1.000
    H90      H        0.22730    0.52090    0.13800    1.000
    C159     C        0.16480    0.44400    0.09260    1.000
    C160     C        0.08190    0.41480    0.08830    1.000
    H91      H        0.07660    0.37530    0.06130    1.000
    C161     C        0.00760    0.44460    0.12430    1.000
    H92      H        0.95180    0.42440    0.12170    1.000
    C162     C        0.24810    0.37810    0.00860    1.000
    C163     C        0.29080    0.29950    0.00060    1.000
    H93      H        0.31900    0.27140    0.02900    1.000
    C164     C        0.29250    0.26060    0.94980    1.000
    H94      H        0.32290    0.20640    0.94400    1.000
    C165     C        0.25010    0.30070    0.90790    1.000
    C166     C        0.21070    0.38280    0.91600    1.000
    H95      H        0.18450    0.41220    0.88710    1.000
    C167     C        0.20940    0.42310    0.96670    1.000
    H96      H        0.18290    0.47910    0.97200    1.000
    C168     C        0.24800    0.25650    0.85280    1.000
    Dy5      Dy       0.67296    0.91288    0.22385    1.000
    Dy6      Dy       0.64387    0.16871    0.21212    1.000
    Dy7      Dy       0.75990    0.39257    0.23000    1.000
    Dy8      Dy       0.78606    0.63985    0.26875    1.000
    O31      O        0.52370    0.91770    0.20150    1.000
    O32      O        0.55720    0.04370    0.23040    1.000
    O33      O        0.13530    0.04190    0.32370    1.000
    O34      O        0.85890    0.76500    0.28620    1.000
    O35      O        0.80850    0.88710    0.24060    1.000
    O36      O        0.64150    0.94960    0.32130    1.000
    O37      O        0.70550    0.06150    0.27080    1.000
    O38      O        0.69620    0.18350    0.51920    1.000
    O39      O        0.37160    0.21230    0.72450    1.000
    O40      O        0.32350    0.30790    0.65980    1.000
    O41      O        0.72200    0.01030    0.15100    1.000
    O42      O        0.65650    0.13190    0.11870    1.000
    O43      O        0.80820    0.95970    0.88550    1.000
    O44      O        0.13210    0.71600    0.78140    1.000
    O45      O        0.20580    0.82460    0.80880    1.000
    O46      O        0.67580    0.30850    0.16670    1.000
    O47      O        0.79100    0.38580    0.12830    1.000
    O48      O        0.65400    0.29210    0.90550    1.000
    O49      O        0.34010    0.38860    0.76560    1.000
    O50      O        0.35060    0.51740    0.79920    1.000
    O51      O        0.81010    0.37210    0.32450    1.000
    O52      O        0.73450    0.49700    0.30830    1.000
    O53      O        0.68020    0.47840    0.57870    1.000
    O54      O        0.35070    0.69210    0.71700    1.000
    O55      O        0.44740    0.79330    0.69910    1.000
    O56      O        0.85890    0.50470    0.20520    1.000
    O57      O        0.93980    0.60340    0.23070    1.000
    O58      O        0.24760    0.41480    0.06100    1.000
    O59      O        0.20130    0.29070    0.82010    1.000
    O60      O        0.29370    0.18520    0.84610    1.000
