# CIF file generated by openbabel 3.1.0, see https://openbabel.org
data_I
_chemical_name_common 'image0'
_cell_length_a 14.3759
_cell_length_b 16.9055
_cell_length_c 21.6345
_cell_angle_alpha 90
_cell_angle_beta 90
_cell_angle_gamma 90
_space_group_name_H-M_alt 'P 1'
_space_group_name_Hall 'P 1'
loop_
    _symmetry_equiv_pos_as_xyz
    x,y,z
loop_
    _atom_site_label
    _atom_site_type_symbol
    _atom_site_fract_x
    _atom_site_fract_y
    _atom_site_fract_z
    _atom_site_occupancy
    Mn1      Mn       0.86564    0.26698    0.92976    1.000
    Mn2      Mn       0.02926    0.26813    0.59713    1.000
    N1       N        0.82460    0.24525    0.83291    1.000
    C1       C        0.80738    0.24739    0.78137    1.000
    N2       N        0.88957    0.25275    0.63893    1.000
    C2       C        0.84101    0.25229    0.68033    1.000
    N3       N        0.77825    0.25231    0.72431    1.000
    N4       N        0.00937    0.28571    0.89030    1.000
    C3       C        0.05678    0.29346    0.84729    1.000
    N5       N        0.08225    0.28250    0.69329    1.000
    C4       C        0.09436    0.29050    0.74561    1.000
    N6       N        0.11792    0.30235    0.80356    1.000
    N7       N        0.91182    0.28122    0.02794    1.000
    C5       C        0.98263    0.28141    0.05249    1.000
    N8       N        0.21323    0.24893    0.05106    1.000
    C6       C        0.13827    0.26413    0.06499    1.000
    N9       N        0.05678    0.28472    0.08638    1.000
    N10      N        0.84272    0.39457    0.92332    1.000
    C7       C        0.83611    0.46166    0.91466    1.000
    N11      N        0.93347    0.64142    0.89921    1.000
    C8       C        0.88283    0.58903    0.90223    1.000
    N12      N        0.81725    0.53544    0.90398    1.000
    N13      N        0.16888    0.28722    0.55574    1.000
    C9       C        0.24724    0.29819    0.55070    1.000
    N14      N        0.45769    0.25093    0.49248    1.000
    C10      C        0.39621    0.27885    0.51765    1.000
    N15      N        0.33529    0.31750    0.55019    1.000
    N16      N        0.99230    0.89773    0.91553    1.000
    C11      C        0.96242    0.95097    0.94299    1.000
    N17      N        0.89219    0.14049    0.94461    1.000
    C12      C        0.91087    0.07662    0.95801    1.000
    N18      N        0.93048    0.00589    0.97957    1.000
    Mn3      Mn       0.63436    0.73302    0.42976    1.000
    Mn4      Mn       0.47074    0.73187    0.09713    1.000
    N19      N        0.67540    0.75475    0.33291    1.000
    C13      C        0.69262    0.75261    0.28137    1.000
    N20      N        0.61043    0.74725    0.13893    1.000
    C14      C        0.65899    0.74771    0.18033    1.000
    N21      N        0.72175    0.74769    0.22431    1.000
    N22      N        0.49063    0.71429    0.39030    1.000
    C15      C        0.44322    0.70654    0.34729    1.000
    N23      N        0.41775    0.71750    0.19329    1.000
    C16      C        0.40564    0.70950    0.24561    1.000
    N24      N        0.38208    0.69765    0.30356    1.000
    N25      N        0.58818    0.71878    0.52794    1.000
    C17      C        0.51737    0.71859    0.55249    1.000
    N26      N        0.28677    0.75107    0.55106    1.000
    C18      C        0.36173    0.73587    0.56499    1.000
    N27      N        0.44322    0.71528    0.58638    1.000
    N28      N        0.65728    0.60543    0.42332    1.000
    C19      C        0.66389    0.53834    0.41466    1.000
    N29      N        0.56653    0.35858    0.39921    1.000
    C20      C        0.61717    0.41097    0.40223    1.000
    N30      N        0.68275    0.46456    0.40398    1.000
    N31      N        0.33112    0.71278    0.05574    1.000
    C21      C        0.25276    0.70181    0.05070    1.000
    N32      N        0.04231    0.74907    0.99248    1.000
    C22      C        0.10379    0.72115    0.01765    1.000
    N33      N        0.16471    0.68250    0.05019    1.000
    N34      N        0.50770    0.10227    0.41553    1.000
    C23      C        0.53758    0.04903    0.44299    1.000
    N35      N        0.60781    0.85951    0.44461    1.000
    C24      C        0.58913    0.92338    0.45801    1.000
    N36      N        0.56952    0.99411    0.47957    1.000
    Mn5      Mn       0.13436    0.76698    0.57024    1.000
    Mn6      Mn       0.97074    0.76813    0.90287    1.000
    N37      N        0.17540    0.74525    0.66709    1.000
    C25      C        0.19262    0.74739    0.71863    1.000
    N38      N        0.11043    0.75275    0.86107    1.000
    C26      C        0.15899    0.75229    0.81967    1.000
    N39      N        0.22175    0.75231    0.77569    1.000
    N40      N        0.99063    0.78571    0.60970    1.000
    C27      C        0.94322    0.79346    0.65271    1.000
    N41      N        0.91775    0.78250    0.80671    1.000
    C28      C        0.90564    0.79050    0.75439    1.000
    N42      N        0.88208    0.80235    0.69644    1.000
    N43      N        0.08818    0.78122    0.47206    1.000
    C29      C        0.01737    0.78141    0.44751    1.000
    N44      N        0.78677    0.74893    0.44894    1.000
    C30      C        0.86173    0.76413    0.43501    1.000
    N45      N        0.94322    0.78472    0.41362    1.000
    N46      N        0.15728    0.89457    0.57668    1.000
    C31      C        0.16389    0.96166    0.58534    1.000
    N47      N        0.06653    0.14142    0.60079    1.000
    C32      C        0.11717    0.08903    0.59777    1.000
    N48      N        0.18275    0.03544    0.59602    1.000
    N49      N        0.83112    0.78722    0.94426    1.000
    C33      C        0.75276    0.79819    0.94930    1.000
    N50      N        0.54231    0.75093    0.00752    1.000
    C34      C        0.60379    0.77885    0.98235    1.000
    N51      N        0.66471    0.81750    0.94981    1.000
    N52      N        0.00770    0.39773    0.58447    1.000
    C35      C        0.03758    0.45097    0.55701    1.000
    N53      N        0.10781    0.64049    0.55539    1.000
    C36      C        0.08913    0.57662    0.54199    1.000
    N54      N        0.06952    0.50589    0.52043    1.000
    Mn7      Mn       0.36564    0.23302    0.07024    1.000
    Mn8      Mn       0.52926    0.23187    0.40287    1.000
    N55      N        0.32460    0.25475    0.16709    1.000
    C37      C        0.30738    0.25261    0.21863    1.000
    N56      N        0.38957    0.24725    0.36107    1.000
    C38      C        0.34101    0.24771    0.31967    1.000
    N57      N        0.27825    0.24769    0.27569    1.000
    N58      N        0.50937    0.21429    0.10970    1.000
    C39      C        0.55678    0.20654    0.15271    1.000
    N59      N        0.58225    0.21750    0.30671    1.000
    C40      C        0.59436    0.20950    0.25439    1.000
    N60      N        0.61792    0.19765    0.19644    1.000
    N61      N        0.41182    0.21878    0.97206    1.000
    C41      C        0.48263    0.21859    0.94751    1.000
    N62      N        0.71323    0.25107    0.94894    1.000
    C42      C        0.63827    0.23587    0.93501    1.000
    N63      N        0.55678    0.21528    0.91362    1.000
    N64      N        0.34272    0.10543    0.07668    1.000
    C43      C        0.33611    0.03834    0.08534    1.000
    N65      N        0.43347    0.85858    0.10079    1.000
    C44      C        0.38283    0.91097    0.09777    1.000
    N66      N        0.31725    0.96456    0.09602    1.000
    N67      N        0.66888    0.21278    0.44426    1.000
    C45      C        0.74724    0.20181    0.44930    1.000
    N68      N        0.95769    0.24907    0.50752    1.000
    C46      C        0.89621    0.22115    0.48235    1.000
    N69      N        0.83529    0.18250    0.44981    1.000
    N70      N        0.49230    0.60227    0.08447    1.000
    C47      C        0.46242    0.54903    0.05701    1.000
    N71      N        0.39219    0.35951    0.05539    1.000
    C48      C        0.41087    0.42338    0.04199    1.000
    N72      N        0.43048    0.49411    0.02043    1.000
