# CIF file generated by openbabel 3.1.0, see https://openbabel.org
data_I
_chemical_name_common 'image0'
_cell_length_a 28.7595
_cell_length_b 28.7595
_cell_length_c 28.7595
_cell_angle_alpha 90
_cell_angle_beta 90
_cell_angle_gamma 90
_space_group_name_H-M_alt 'P 1'
_space_group_name_Hall 'P 1'
loop_
    _symmetry_equiv_pos_as_xyz
    x,y,z
loop_
    _atom_site_label
    _atom_site_type_symbol
    _atom_site_fract_x
    _atom_site_fract_y
    _atom_site_fract_z
    _atom_site_occupancy
    Zn1      Zn       0.39623    0.10429    0.25197    1.000
    C1       C        0.33560    0.02560    0.22150    1.000
    C2       C        0.29910    0.05000    0.19980    1.000
    H1       H        0.29860    0.08230    0.19890    1.000
    C3       C        0.26520    0.02470    0.18030    1.000
    H2       H        0.24050    0.04020    0.16620    1.000
    C4       C        0.40710    0.10960    0.14470    1.000
    C5       C        0.41200    0.06320    0.13310    1.000
    H3       H        0.41320    0.04000    0.15560    1.000
    C6       C        0.41500    0.05330    0.08670    1.000
    H4       H        0.41710    0.02240    0.07750    1.000
    C7       C        0.35540    0.17380    0.31970    1.000
    C8       C        0.38250    0.21370    0.31390    1.000
    H5       H        0.40950    0.21540    0.29440    1.000
    C9       C        0.37230    0.25640    0.33740    1.000
    H6       H        0.38820    0.28360    0.32990    1.000
    C10      C        0.47700    0.08080    0.31690    1.000
    C11      C        0.45010    0.05840    0.35290    1.000
    H7       H        0.41790    0.06020    0.35440    1.000
    C12      C        0.47690    0.03340    0.38570    1.000
    H8       H        0.46150    0.01620    0.40840    1.000
    N1       N        0.37510    0.03940    0.24400    1.000
    N2       N        0.39920    0.13580    0.19060    1.000
    N3       N        0.35290    0.13120    0.29750    1.000
    N4       N        0.46070    0.10220    0.27680    1.000
    C13      C        0.42300    0.12010    0.15630    1.000
    C14      C        0.44230    0.07440    0.14660    1.000
    H9       H        0.44180    0.05020    0.16800    1.000
    C15      C        0.46110    0.07030    0.10380    1.000
    H10      H        0.47520    0.04220    0.09660    1.000
    H11      H        0.30250    0.08350    0.31840    1.000
    C16      C        0.38770    0.23890    0.35030    1.000
    H12      H        0.41420    0.25700    0.35390    1.000
    C17      C        0.47470    0.10150    0.32310    1.000
    C18      C        0.44990    0.09570    0.36470    1.000
    H13      H        0.41760    0.09490    0.36520    1.000
    C19      C        0.47620    0.09130    0.40540    1.000
    H14      H        0.46070    0.08820    0.43360    1.000
    Zn2      Zn       0.60377    0.89571    0.25197    1.000
    C20      C        0.66440    0.97440    0.22150    1.000
    C21      C        0.70090    0.95000    0.19980    1.000
    H15      H        0.70140    0.91770    0.19890    1.000
    C22      C        0.73480    0.97530    0.18030    1.000
    H16      H        0.75950    0.95980    0.16620    1.000
    C23      C        0.59290    0.89040    0.14470    1.000
    C24      C        0.58800    0.93680    0.13310    1.000
    H17      H        0.58680    0.96000    0.15560    1.000
    C25      C        0.58500    0.94670    0.08670    1.000
    H18      H        0.58290    0.97760    0.07750    1.000
    C26      C        0.64460    0.82620    0.31970    1.000
    C27      C        0.61750    0.78630    0.31390    1.000
    H19      H        0.59050    0.78460    0.29440    1.000
    C28      C        0.62770    0.74360    0.33740    1.000
    H20      H        0.61180    0.71640    0.32990    1.000
    C29      C        0.52300    0.91920    0.31690    1.000
    C30      C        0.54990    0.94160    0.35290    1.000
    H21      H        0.58210    0.93980    0.35440    1.000
    C31      C        0.52310    0.96660    0.38570    1.000
    H22      H        0.53850    0.98380    0.40840    1.000
    N5       N        0.62490    0.96060    0.24400    1.000
    N6       N        0.60080    0.86420    0.19060    1.000
    N7       N        0.64710    0.86880    0.29750    1.000
    N8       N        0.53930    0.89780    0.27680    1.000
    C32      C        0.57700    0.87990    0.15630    1.000
    C33      C        0.55770    0.92560    0.14660    1.000
    H23      H        0.55820    0.94980    0.16800    1.000
    C34      C        0.53890    0.92970    0.10380    1.000
    H24      H        0.52480    0.95780    0.09660    1.000
    H25      H        0.69750    0.91650    0.31840    1.000
    C35      C        0.61230    0.76110    0.35030    1.000
    H26      H        0.58580    0.74300    0.35390    1.000
    C36      C        0.52530    0.89850    0.32310    1.000
    C37      C        0.55010    0.90430    0.36470    1.000
    H27      H        0.58240    0.90510    0.36520    1.000
    C38      C        0.52380    0.90870    0.40540    1.000
    H28      H        0.53930    0.91180    0.43360    1.000
    Zn3      Zn       0.60377    0.10429    0.74803    1.000
    C39      C        0.66440    0.02560    0.77850    1.000
    C40      C        0.70090    0.05000    0.80020    1.000
    H29      H        0.70140    0.08230    0.80110    1.000
    C41      C        0.73480    0.02470    0.81970    1.000
    H30      H        0.75950    0.04020    0.83380    1.000
    C42      C        0.59290    0.10960    0.85530    1.000
    C43      C        0.58800    0.06320    0.86690    1.000
    H31      H        0.58680    0.04000    0.84440    1.000
    C44      C        0.58500    0.05330    0.91330    1.000
    H32      H        0.58290    0.02240    0.92250    1.000
    C45      C        0.64460    0.17380    0.68030    1.000
    C46      C        0.61750    0.21370    0.68610    1.000
    H33      H        0.59050    0.21540    0.70560    1.000
    C47      C        0.62770    0.25640    0.66260    1.000
    H34      H        0.61180    0.28360    0.67010    1.000
    C48      C        0.52300    0.08080    0.68310    1.000
    C49      C        0.54990    0.05840    0.64710    1.000
    H35      H        0.58210    0.06020    0.64560    1.000
    C50      C        0.52310    0.03340    0.61430    1.000
    H36      H        0.53850    0.01620    0.59160    1.000
    N9       N        0.62490    0.03940    0.75600    1.000
    N10      N        0.60080    0.13580    0.80940    1.000
    N11      N        0.64710    0.13120    0.70250    1.000
    N12      N        0.53930    0.10220    0.72320    1.000
    C51      C        0.57700    0.12010    0.84370    1.000
    C52      C        0.55770    0.07440    0.85340    1.000
    H37      H        0.55820    0.05020    0.83200    1.000
    C53      C        0.53890    0.07030    0.89620    1.000
    H38      H        0.52480    0.04220    0.90340    1.000
    H39      H        0.69750    0.08350    0.68160    1.000
    C54      C        0.61230    0.23890    0.64970    1.000
    H40      H        0.58580    0.25700    0.64610    1.000
    C55      C        0.52530    0.10150    0.67690    1.000
    C56      C        0.55010    0.09570    0.63530    1.000
    H41      H        0.58240    0.09490    0.63480    1.000
    C57      C        0.52380    0.09130    0.59460    1.000
    H42      H        0.53930    0.08820    0.56640    1.000
    Zn4      Zn       0.39623    0.89571    0.74803    1.000
    C58      C        0.33560    0.97440    0.77850    1.000
    C59      C        0.29910    0.95000    0.80020    1.000
    H43      H        0.29860    0.91770    0.80110    1.000
    C60      C        0.26520    0.97530    0.81970    1.000
    H44      H        0.24050    0.95980    0.83380    1.000
    C61      C        0.40710    0.89040    0.85530    1.000
    C62      C        0.41200    0.93680    0.86690    1.000
    H45      H        0.41320    0.96000    0.84440    1.000
    C63      C        0.41500    0.94670    0.91330    1.000
    H46      H        0.41710    0.97760    0.92250    1.000
    C64      C        0.35540    0.82620    0.68030    1.000
    C65      C        0.38250    0.78630    0.68610    1.000
    H47      H        0.40950    0.78460    0.70560    1.000
    C66      C        0.37230    0.74360    0.66260    1.000
    H48      H        0.38820    0.71640    0.67010    1.000
    C67      C        0.47700    0.91920    0.68310    1.000
    C68      C        0.45010    0.94160    0.64710    1.000
    H49      H        0.41790    0.93980    0.64560    1.000
    C69      C        0.47690    0.96660    0.61430    1.000
    H50      H        0.46150    0.98380    0.59160    1.000
    N13      N        0.37510    0.96060    0.75600    1.000
    N14      N        0.39920    0.86420    0.80940    1.000
    N15      N        0.35290    0.86880    0.70250    1.000
    N16      N        0.46070    0.89780    0.72320    1.000
    C70      C        0.42300    0.87990    0.84370    1.000
    C71      C        0.44230    0.92560    0.85340    1.000
    H51      H        0.44180    0.94980    0.83200    1.000
    C72      C        0.46110    0.92970    0.89620    1.000
    H52      H        0.47520    0.95780    0.90340    1.000
    H53      H        0.30250    0.91650    0.68160    1.000
    C73      C        0.38770    0.76110    0.64970    1.000
    H54      H        0.41420    0.74300    0.64610    1.000
    C74      C        0.47470    0.89850    0.67690    1.000
    C75      C        0.44990    0.90430    0.63530    1.000
    H55      H        0.41760    0.90510    0.63480    1.000
    C76      C        0.47620    0.90870    0.59460    1.000
    H56      H        0.46070    0.91180    0.56640    1.000
    Zn5      Zn       0.25197    0.39623    0.10429    1.000
    C77      C        0.22150    0.33560    0.02560    1.000
    C78      C        0.19980    0.29910    0.05000    1.000
    H57      H        0.19890    0.29860    0.08230    1.000
    C79      C        0.18030    0.26520    0.02470    1.000
    H58      H        0.16620    0.24050    0.04020    1.000
    C80      C        0.14470    0.40710    0.10960    1.000
    C81      C        0.13310    0.41200    0.06320    1.000
    H59      H        0.15560    0.41320    0.04000    1.000
    C82      C        0.08670    0.41500    0.05330    1.000
    H60      H        0.07750    0.41710    0.02240    1.000
    C83      C        0.31970    0.35540    0.17380    1.000
    C84      C        0.31390    0.38250    0.21370    1.000
    H61      H        0.29440    0.40950    0.21540    1.000
    C85      C        0.33740    0.37230    0.25640    1.000
    H62      H        0.32990    0.38820    0.28360    1.000
    C86      C        0.31690    0.47700    0.08080    1.000
    C87      C        0.35290    0.45010    0.05840    1.000
    H63      H        0.35440    0.41790    0.06020    1.000
    C88      C        0.38570    0.47690    0.03340    1.000
    H64      H        0.40840    0.46150    0.01620    1.000
    N17      N        0.24400    0.37510    0.03940    1.000
    N18      N        0.19060    0.39920    0.13580    1.000
    N19      N        0.29750    0.35290    0.13120    1.000
    N20      N        0.27680    0.46070    0.10220    1.000
    C89      C        0.15630    0.42300    0.12010    1.000
    C90      C        0.14660    0.44230    0.07440    1.000
    H65      H        0.16800    0.44180    0.05020    1.000
    C91      C        0.10380    0.46110    0.07030    1.000
    H66      H        0.09660    0.47520    0.04220    1.000
    H67      H        0.31840    0.30250    0.08350    1.000
    C92      C        0.35030    0.38770    0.23890    1.000
    H68      H        0.35390    0.41420    0.25700    1.000
    C93      C        0.32310    0.47470    0.10150    1.000
    C94      C        0.36470    0.44990    0.09570    1.000
    H69      H        0.36520    0.41760    0.09490    1.000
    C95      C        0.40540    0.47620    0.09130    1.000
    H70      H        0.43360    0.46070    0.08820    1.000
    Zn6      Zn       0.25197    0.60377    0.89571    1.000
    C96      C        0.22150    0.66440    0.97440    1.000
    C97      C        0.19980    0.70090    0.95000    1.000
    H71      H        0.19890    0.70140    0.91770    1.000
    C98      C        0.18030    0.73480    0.97530    1.000
    H72      H        0.16620    0.75950    0.95980    1.000
    C99      C        0.14470    0.59290    0.89040    1.000
    C100     C        0.13310    0.58800    0.93680    1.000
    H73      H        0.15560    0.58680    0.96000    1.000
    C101     C        0.08670    0.58500    0.94670    1.000
    H74      H        0.07750    0.58290    0.97760    1.000
    C102     C        0.31970    0.64460    0.82620    1.000
    C103     C        0.31390    0.61750    0.78630    1.000
    H75      H        0.29440    0.59050    0.78460    1.000
    C104     C        0.33740    0.62770    0.74360    1.000
    H76      H        0.32990    0.61180    0.71640    1.000
    C105     C        0.31690    0.52300    0.91920    1.000
    C106     C        0.35290    0.54990    0.94160    1.000
    H77      H        0.35440    0.58210    0.93980    1.000
    C107     C        0.38570    0.52310    0.96660    1.000
    H78      H        0.40840    0.53850    0.98380    1.000
    N21      N        0.24400    0.62490    0.96060    1.000
    N22      N        0.19060    0.60080    0.86420    1.000
    N23      N        0.29750    0.64710    0.86880    1.000
    N24      N        0.27680    0.53930    0.89780    1.000
    C108     C        0.15630    0.57700    0.87990    1.000
    C109     C        0.14660    0.55770    0.92560    1.000
    H79      H        0.16800    0.55820    0.94980    1.000
    C110     C        0.10380    0.53890    0.92970    1.000
    H80      H        0.09660    0.52480    0.95780    1.000
    H81      H        0.31840    0.69750    0.91650    1.000
    C111     C        0.35030    0.61230    0.76110    1.000
    H82      H        0.35390    0.58580    0.74300    1.000
    C112     C        0.32310    0.52530    0.89850    1.000
    C113     C        0.36470    0.55010    0.90430    1.000
    H83      H        0.36520    0.58240    0.90510    1.000
    C114     C        0.40540    0.52380    0.90870    1.000
    H84      H        0.43360    0.53930    0.91180    1.000
    Zn7      Zn       0.74803    0.60377    0.10429    1.000
    C115     C        0.77850    0.66440    0.02560    1.000
    C116     C        0.80020    0.70090    0.05000    1.000
    H85      H        0.80110    0.70140    0.08230    1.000
    C117     C        0.81970    0.73480    0.02470    1.000
    H86      H        0.83380    0.75950    0.04020    1.000
    C118     C        0.85530    0.59290    0.10960    1.000
    C119     C        0.86690    0.58800    0.06320    1.000
    H87      H        0.84440    0.58680    0.04000    1.000
    C120     C        0.91330    0.58500    0.05330    1.000
    H88      H        0.92250    0.58290    0.02240    1.000
    C121     C        0.68030    0.64460    0.17380    1.000
    C122     C        0.68610    0.61750    0.21370    1.000
    H89      H        0.70560    0.59050    0.21540    1.000
    C123     C        0.66260    0.62770    0.25640    1.000
    H90      H        0.67010    0.61180    0.28360    1.000
    C124     C        0.68310    0.52300    0.08080    1.000
    C125     C        0.64710    0.54990    0.05840    1.000
    H91      H        0.64560    0.58210    0.06020    1.000
    C126     C        0.61430    0.52310    0.03340    1.000
    H92      H        0.59160    0.53850    0.01620    1.000
    N25      N        0.75600    0.62490    0.03940    1.000
    N26      N        0.80940    0.60080    0.13580    1.000
    N27      N        0.70250    0.64710    0.13120    1.000
    N28      N        0.72320    0.53930    0.10220    1.000
    C127     C        0.84370    0.57700    0.12010    1.000
    C128     C        0.85340    0.55770    0.07440    1.000
    H93      H        0.83200    0.55820    0.05020    1.000
    C129     C        0.89620    0.53890    0.07030    1.000
    H94      H        0.90340    0.52480    0.04220    1.000
    H95      H        0.68160    0.69750    0.08350    1.000
    C130     C        0.64970    0.61230    0.23890    1.000
    H96      H        0.64610    0.58580    0.25700    1.000
    C131     C        0.67690    0.52530    0.10150    1.000
    C132     C        0.63530    0.55010    0.09570    1.000
    H97      H        0.63480    0.58240    0.09490    1.000
    C133     C        0.59460    0.52380    0.09130    1.000
    H98      H        0.56640    0.53930    0.08820    1.000
    Zn8      Zn       0.74803    0.39623    0.89571    1.000
    C134     C        0.77850    0.33560    0.97440    1.000
    C135     C        0.80020    0.29910    0.95000    1.000
    H99      H        0.80110    0.29860    0.91770    1.000
    C136     C        0.81970    0.26520    0.97530    1.000
    H100     H        0.83380    0.24050    0.95980    1.000
    C137     C        0.85530    0.40710    0.89040    1.000
    C138     C        0.86690    0.41200    0.93680    1.000
    H101     H        0.84440    0.41320    0.96000    1.000
    C139     C        0.91330    0.41500    0.94670    1.000
    H102     H        0.92250    0.41710    0.97760    1.000
    C140     C        0.68030    0.35540    0.82620    1.000
    C141     C        0.68610    0.38250    0.78630    1.000
    H103     H        0.70560    0.40950    0.78460    1.000
    C142     C        0.66260    0.37230    0.74360    1.000
    H104     H        0.67010    0.38820    0.71640    1.000
    C143     C        0.68310    0.47700    0.91920    1.000
    C144     C        0.64710    0.45010    0.94160    1.000
    H105     H        0.64560    0.41790    0.93980    1.000
    C145     C        0.61430    0.47690    0.96660    1.000
    H106     H        0.59160    0.46150    0.98380    1.000
    N29      N        0.75600    0.37510    0.96060    1.000
    N30      N        0.80940    0.39920    0.86420    1.000
    N31      N        0.70250    0.35290    0.86880    1.000
    N32      N        0.72320    0.46070    0.89780    1.000
    C146     C        0.84370    0.42300    0.87990    1.000
    C147     C        0.85340    0.44230    0.92560    1.000
    H107     H        0.83200    0.44180    0.94980    1.000
    C148     C        0.89620    0.46110    0.92970    1.000
    H108     H        0.90340    0.47520    0.95780    1.000
    H109     H        0.68160    0.30250    0.91650    1.000
    C149     C        0.64970    0.38770    0.76110    1.000
    H110     H        0.64610    0.41420    0.74300    1.000
    C150     C        0.67690    0.47470    0.89850    1.000
    C151     C        0.63530    0.44990    0.90430    1.000
    H111     H        0.63480    0.41760    0.90510    1.000
    C152     C        0.59460    0.47620    0.90870    1.000
    H112     H        0.56640    0.46070    0.91180    1.000
    Zn9      Zn       0.10429    0.25197    0.39623    1.000
    C153     C        0.02560    0.22150    0.33560    1.000
    C154     C        0.05000    0.19980    0.29910    1.000
    H113     H        0.08230    0.19890    0.29860    1.000
    C155     C        0.02470    0.18030    0.26520    1.000
    H114     H        0.04020    0.16620    0.24050    1.000
    C156     C        0.10960    0.14470    0.40710    1.000
    C157     C        0.06320    0.13310    0.41200    1.000
    H115     H        0.04000    0.15560    0.41320    1.000
    C158     C        0.05330    0.08670    0.41500    1.000
    H116     H        0.02240    0.07750    0.41710    1.000
    C159     C        0.17380    0.31970    0.35540    1.000
    C160     C        0.21370    0.31390    0.38250    1.000
    H117     H        0.21540    0.29440    0.40950    1.000
    C161     C        0.25640    0.33740    0.37230    1.000
    H118     H        0.28360    0.32990    0.38820    1.000
    C162     C        0.08080    0.31690    0.47700    1.000
    C163     C        0.05840    0.35290    0.45010    1.000
    H119     H        0.06020    0.35440    0.41790    1.000
    C164     C        0.03340    0.38570    0.47690    1.000
    H120     H        0.01620    0.40840    0.46150    1.000
    N33      N        0.03940    0.24400    0.37510    1.000
    N34      N        0.13580    0.19060    0.39920    1.000
    N35      N        0.13120    0.29750    0.35290    1.000
    N36      N        0.10220    0.27680    0.46070    1.000
    C165     C        0.12010    0.15630    0.42300    1.000
    C166     C        0.07440    0.14660    0.44230    1.000
    H121     H        0.05020    0.16800    0.44180    1.000
    C167     C        0.07030    0.10380    0.46110    1.000
    H122     H        0.04220    0.09660    0.47520    1.000
    H123     H        0.08350    0.31840    0.30250    1.000
    C168     C        0.23890    0.35030    0.38770    1.000
    H124     H        0.25700    0.35390    0.41420    1.000
    C169     C        0.10150    0.32310    0.47470    1.000
    C170     C        0.09570    0.36470    0.44990    1.000
    H125     H        0.09490    0.36520    0.41760    1.000
    C171     C        0.09130    0.40540    0.47620    1.000
    H126     H        0.08820    0.43360    0.46070    1.000
    Zn10     Zn       0.89571    0.25197    0.60377    1.000
    C172     C        0.97440    0.22150    0.66440    1.000
    C173     C        0.95000    0.19980    0.70090    1.000
    H127     H        0.91770    0.19890    0.70140    1.000
    C174     C        0.97530    0.18030    0.73480    1.000
    H128     H        0.95980    0.16620    0.75950    1.000
    C175     C        0.89040    0.14470    0.59290    1.000
    C176     C        0.93680    0.13310    0.58800    1.000
    H129     H        0.96000    0.15560    0.58680    1.000
    C177     C        0.94670    0.08670    0.58500    1.000
    H130     H        0.97760    0.07750    0.58290    1.000
    C178     C        0.82620    0.31970    0.64460    1.000
    C179     C        0.78630    0.31390    0.61750    1.000
    H131     H        0.78460    0.29440    0.59050    1.000
    C180     C        0.74360    0.33740    0.62770    1.000
    H132     H        0.71640    0.32990    0.61180    1.000
    C181     C        0.91920    0.31690    0.52300    1.000
    C182     C        0.94160    0.35290    0.54990    1.000
    H133     H        0.93980    0.35440    0.58210    1.000
    C183     C        0.96660    0.38570    0.52310    1.000
    H134     H        0.98380    0.40840    0.53850    1.000
    N37      N        0.96060    0.24400    0.62490    1.000
    N38      N        0.86420    0.19060    0.60080    1.000
    N39      N        0.86880    0.29750    0.64710    1.000
    N40      N        0.89780    0.27680    0.53930    1.000
    C184     C        0.87990    0.15630    0.57700    1.000
    C185     C        0.92560    0.14660    0.55770    1.000
    H135     H        0.94980    0.16800    0.55820    1.000
    C186     C        0.92970    0.10380    0.53890    1.000
    H136     H        0.95780    0.09660    0.52480    1.000
    H137     H        0.91650    0.31840    0.69750    1.000
    C187     C        0.76110    0.35030    0.61230    1.000
    H138     H        0.74300    0.35390    0.58580    1.000
    C188     C        0.89850    0.32310    0.52530    1.000
    C189     C        0.90430    0.36470    0.55010    1.000
    H139     H        0.90510    0.36520    0.58240    1.000
    C190     C        0.90870    0.40540    0.52380    1.000
    H140     H        0.91180    0.43360    0.53930    1.000
    Zn11     Zn       0.10429    0.74803    0.60377    1.000
    C191     C        0.02560    0.77850    0.66440    1.000
    C192     C        0.05000    0.80020    0.70090    1.000
    H141     H        0.08230    0.80110    0.70140    1.000
    C193     C        0.02470    0.81970    0.73480    1.000
    H142     H        0.04020    0.83380    0.75950    1.000
    C194     C        0.10960    0.85530    0.59290    1.000
    C195     C        0.06320    0.86690    0.58800    1.000
    H143     H        0.04000    0.84440    0.58680    1.000
    C196     C        0.05330    0.91330    0.58500    1.000
    H144     H        0.02240    0.92250    0.58290    1.000
    C197     C        0.17380    0.68030    0.64460    1.000
    C198     C        0.21370    0.68610    0.61750    1.000
    H145     H        0.21540    0.70560    0.59050    1.000
    C199     C        0.25640    0.66260    0.62770    1.000
    H146     H        0.28360    0.67010    0.61180    1.000
    C200     C        0.08080    0.68310    0.52300    1.000
    C201     C        0.05840    0.64710    0.54990    1.000
    H147     H        0.06020    0.64560    0.58210    1.000
    C202     C        0.03340    0.61430    0.52310    1.000
    H148     H        0.01620    0.59160    0.53850    1.000
    N41      N        0.03940    0.75600    0.62490    1.000
    N42      N        0.13580    0.80940    0.60080    1.000
    N43      N        0.13120    0.70250    0.64710    1.000
    N44      N        0.10220    0.72320    0.53930    1.000
    C203     C        0.12010    0.84370    0.57700    1.000
    C204     C        0.07440    0.85340    0.55770    1.000
    H149     H        0.05020    0.83200    0.55820    1.000
    C205     C        0.07030    0.89620    0.53890    1.000
    H150     H        0.04220    0.90340    0.52480    1.000
    H151     H        0.08350    0.68160    0.69750    1.000
    C206     C        0.23890    0.64970    0.61230    1.000
    H152     H        0.25700    0.64610    0.58580    1.000
    C207     C        0.10150    0.67690    0.52530    1.000
    C208     C        0.09570    0.63530    0.55010    1.000
    H153     H        0.09490    0.63480    0.58240    1.000
    C209     C        0.09130    0.59460    0.52380    1.000
    H154     H        0.08820    0.56640    0.53930    1.000
    Zn12     Zn       0.89571    0.74803    0.39623    1.000
    C210     C        0.97440    0.77850    0.33560    1.000
    C211     C        0.95000    0.80020    0.29910    1.000
    H155     H        0.91770    0.80110    0.29860    1.000
    C212     C        0.97530    0.81970    0.26520    1.000
    H156     H        0.95980    0.83380    0.24050    1.000
    C213     C        0.89040    0.85530    0.40710    1.000
    C214     C        0.93680    0.86690    0.41200    1.000
    H157     H        0.96000    0.84440    0.41320    1.000
    C215     C        0.94670    0.91330    0.41500    1.000
    H158     H        0.97760    0.92250    0.41710    1.000
    C216     C        0.82620    0.68030    0.35540    1.000
    C217     C        0.78630    0.68610    0.38250    1.000
    H159     H        0.78460    0.70560    0.40950    1.000
    C218     C        0.74360    0.66260    0.37230    1.000
    H160     H        0.71640    0.67010    0.38820    1.000
    C219     C        0.91920    0.68310    0.47700    1.000
    C220     C        0.94160    0.64710    0.45010    1.000
    H161     H        0.93980    0.64560    0.41790    1.000
    C221     C        0.96660    0.61430    0.47690    1.000
    H162     H        0.98380    0.59160    0.46150    1.000
    N45      N        0.96060    0.75600    0.37510    1.000
    N46      N        0.86420    0.80940    0.39920    1.000
    N47      N        0.86880    0.70250    0.35290    1.000
    N48      N        0.89780    0.72320    0.46070    1.000
    C222     C        0.87990    0.84370    0.42300    1.000
    C223     C        0.92560    0.85340    0.44230    1.000
    H163     H        0.94980    0.83200    0.44180    1.000
    C224     C        0.92970    0.89620    0.46110    1.000
    H164     H        0.95780    0.90340    0.47520    1.000
    H165     H        0.91650    0.68160    0.30250    1.000
    C225     C        0.76110    0.64970    0.38770    1.000
    H166     H        0.74300    0.64610    0.41420    1.000
    C226     C        0.89850    0.67690    0.47470    1.000
    C227     C        0.90430    0.63530    0.44990    1.000
    H167     H        0.90510    0.63480    0.41760    1.000
    C228     C        0.90870    0.59460    0.47620    1.000
    H168     H        0.91180    0.56640    0.46070    1.000
    Zn13     Zn       0.10429    0.39623    0.74803    1.000
    C229     C        0.02560    0.33560    0.77850    1.000
    C230     C        0.05000    0.29910    0.80020    1.000
    H169     H        0.08230    0.29860    0.80110    1.000
    C231     C        0.02470    0.26520    0.81970    1.000
    H170     H        0.04020    0.24050    0.83380    1.000
    C232     C        0.10960    0.40710    0.85530    1.000
    C233     C        0.06320    0.41200    0.86690    1.000
    H171     H        0.04000    0.41320    0.84440    1.000
    C234     C        0.05330    0.41500    0.91330    1.000
    H172     H        0.02240    0.41710    0.92250    1.000
    C235     C        0.17380    0.35540    0.68030    1.000
    C236     C        0.21370    0.38250    0.68610    1.000
    H173     H        0.21540    0.40950    0.70560    1.000
    C237     C        0.25640    0.37230    0.66260    1.000
    H174     H        0.28360    0.38820    0.67010    1.000
    C238     C        0.08080    0.47700    0.68310    1.000
    C239     C        0.05840    0.45010    0.64710    1.000
    H175     H        0.06020    0.41790    0.64560    1.000
    C240     C        0.03340    0.47690    0.61430    1.000
    H176     H        0.01620    0.46150    0.59160    1.000
    N49      N        0.03940    0.37510    0.75600    1.000
    N50      N        0.13580    0.39920    0.80940    1.000
    N51      N        0.13120    0.35290    0.70250    1.000
    N52      N        0.10220    0.46070    0.72320    1.000
    C241     C        0.12010    0.42300    0.84370    1.000
    C242     C        0.07440    0.44230    0.85340    1.000
    H177     H        0.05020    0.44180    0.83200    1.000
    C243     C        0.07030    0.46110    0.89620    1.000
    H178     H        0.04220    0.47520    0.90340    1.000
    H179     H        0.08350    0.30250    0.68160    1.000
    C244     C        0.23890    0.38770    0.64970    1.000
    H180     H        0.25700    0.41420    0.64610    1.000
    C245     C        0.10150    0.47470    0.67690    1.000
    C246     C        0.09570    0.44990    0.63530    1.000
    H181     H        0.09490    0.41760    0.63480    1.000
    C247     C        0.09130    0.47620    0.59460    1.000
    H182     H        0.08820    0.46070    0.56640    1.000
    Zn14     Zn       0.89571    0.60377    0.74803    1.000
    C248     C        0.97440    0.66440    0.77850    1.000
    C249     C        0.95000    0.70090    0.80020    1.000
    H183     H        0.91770    0.70140    0.80110    1.000
    C250     C        0.97530    0.73480    0.81970    1.000
    H184     H        0.95980    0.75950    0.83380    1.000
    C251     C        0.89040    0.59290    0.85530    1.000
    C252     C        0.93680    0.58800    0.86690    1.000
    H185     H        0.96000    0.58680    0.84440    1.000
    C253     C        0.94670    0.58500    0.91330    1.000
    H186     H        0.97760    0.58290    0.92250    1.000
    C254     C        0.82620    0.64460    0.68030    1.000
    C255     C        0.78630    0.61750    0.68610    1.000
    H187     H        0.78460    0.59050    0.70560    1.000
    C256     C        0.74360    0.62770    0.66260    1.000
    H188     H        0.71640    0.61180    0.67010    1.000
    C257     C        0.91920    0.52300    0.68310    1.000
    C258     C        0.94160    0.54990    0.64710    1.000
    H189     H        0.93980    0.58210    0.64560    1.000
    C259     C        0.96660    0.52310    0.61430    1.000
    H190     H        0.98380    0.53850    0.59160    1.000
    N53      N        0.96060    0.62490    0.75600    1.000
    N54      N        0.86420    0.60080    0.80940    1.000
    N55      N        0.86880    0.64710    0.70250    1.000
    N56      N        0.89780    0.53930    0.72320    1.000
    C260     C        0.87990    0.57700    0.84370    1.000
    C261     C        0.92560    0.55770    0.85340    1.000
    H191     H        0.94980    0.55820    0.83200    1.000
    C262     C        0.92970    0.53890    0.89620    1.000
    H192     H        0.95780    0.52480    0.90340    1.000
    H193     H        0.91650    0.69750    0.68160    1.000
    C263     C        0.76110    0.61230    0.64970    1.000
    H194     H        0.74300    0.58580    0.64610    1.000
    C264     C        0.89850    0.52530    0.67690    1.000
    C265     C        0.90430    0.55010    0.63530    1.000
    H195     H        0.90510    0.58240    0.63480    1.000
    C266     C        0.90870    0.52380    0.59460    1.000
    H196     H        0.91180    0.53930    0.56640    1.000
    Zn15     Zn       0.10429    0.60377    0.25197    1.000
    C267     C        0.02560    0.66440    0.22150    1.000
    C268     C        0.05000    0.70090    0.19980    1.000
    H197     H        0.08230    0.70140    0.19890    1.000
    C269     C        0.02470    0.73480    0.18030    1.000
    H198     H        0.04020    0.75950    0.16620    1.000
    C270     C        0.10960    0.59290    0.14470    1.000
    C271     C        0.06320    0.58800    0.13310    1.000
    H199     H        0.04000    0.58680    0.15560    1.000
    C272     C        0.05330    0.58500    0.08670    1.000
    H200     H        0.02240    0.58290    0.07750    1.000
    C273     C        0.17380    0.64460    0.31970    1.000
    C274     C        0.21370    0.61750    0.31390    1.000
    H201     H        0.21540    0.59050    0.29440    1.000
    C275     C        0.25640    0.62770    0.33740    1.000
    H202     H        0.28360    0.61180    0.32990    1.000
    C276     C        0.08080    0.52300    0.31690    1.000
    C277     C        0.05840    0.54990    0.35290    1.000
    H203     H        0.06020    0.58210    0.35440    1.000
    C278     C        0.03340    0.52310    0.38570    1.000
    H204     H        0.01620    0.53850    0.40840    1.000
    N57      N        0.03940    0.62490    0.24400    1.000
    N58      N        0.13580    0.60080    0.19060    1.000
    N59      N        0.13120    0.64710    0.29750    1.000
    N60      N        0.10220    0.53930    0.27680    1.000
    C279     C        0.12010    0.57700    0.15630    1.000
    C280     C        0.07440    0.55770    0.14660    1.000
    H205     H        0.05020    0.55820    0.16800    1.000
    C281     C        0.07030    0.53890    0.10380    1.000
    H206     H        0.04220    0.52480    0.09660    1.000
    H207     H        0.08350    0.69750    0.31840    1.000
    C282     C        0.23890    0.61230    0.35030    1.000
    H208     H        0.25700    0.58580    0.35390    1.000
    C283     C        0.10150    0.52530    0.32310    1.000
    C284     C        0.09570    0.55010    0.36470    1.000
    H209     H        0.09490    0.58240    0.36520    1.000
    C285     C        0.09130    0.52380    0.40540    1.000
    H210     H        0.08820    0.53930    0.43360    1.000
    Zn16     Zn       0.89571    0.39623    0.25197    1.000
    C286     C        0.97440    0.33560    0.22150    1.000
    C287     C        0.95000    0.29910    0.19980    1.000
    H211     H        0.91770    0.29860    0.19890    1.000
    C288     C        0.97530    0.26520    0.18030    1.000
    H212     H        0.95980    0.24050    0.16620    1.000
    C289     C        0.89040    0.40710    0.14470    1.000
    C290     C        0.93680    0.41200    0.13310    1.000
    H213     H        0.96000    0.41320    0.15560    1.000
    C291     C        0.94670    0.41500    0.08670    1.000
    H214     H        0.97760    0.41710    0.07750    1.000
    C292     C        0.82620    0.35540    0.31970    1.000
    C293     C        0.78630    0.38250    0.31390    1.000
    H215     H        0.78460    0.40950    0.29440    1.000
    C294     C        0.74360    0.37230    0.33740    1.000
    H216     H        0.71640    0.38820    0.32990    1.000
    C295     C        0.91920    0.47700    0.31690    1.000
    C296     C        0.94160    0.45010    0.35290    1.000
    H217     H        0.93980    0.41790    0.35440    1.000
    C297     C        0.96660    0.47690    0.38570    1.000
    H218     H        0.98380    0.46150    0.40840    1.000
    N61      N        0.96060    0.37510    0.24400    1.000
    N62      N        0.86420    0.39920    0.19060    1.000
    N63      N        0.86880    0.35290    0.29750    1.000
    N64      N        0.89780    0.46070    0.27680    1.000
    C298     C        0.87990    0.42300    0.15630    1.000
    C299     C        0.92560    0.44230    0.14660    1.000
    H219     H        0.94980    0.44180    0.16800    1.000
    C300     C        0.92970    0.46110    0.10380    1.000
    H220     H        0.95780    0.47520    0.09660    1.000
    H221     H        0.91650    0.30250    0.31840    1.000
    C301     C        0.76110    0.38770    0.35030    1.000
    H222     H        0.74300    0.41420    0.35390    1.000
    C302     C        0.89850    0.47470    0.32310    1.000
    C303     C        0.90430    0.44990    0.36470    1.000
    H223     H        0.90510    0.41760    0.36520    1.000
    C304     C        0.90870    0.47620    0.40540    1.000
    H224     H        0.91180    0.46070    0.43360    1.000
    Zn17     Zn       0.39623    0.25197    0.89571    1.000
    C305     C        0.33560    0.22150    0.97440    1.000
    C306     C        0.29910    0.19980    0.95000    1.000
    H225     H        0.29860    0.19890    0.91770    1.000
    C307     C        0.26520    0.18030    0.97530    1.000
    H226     H        0.24050    0.16620    0.95980    1.000
    C308     C        0.40710    0.14470    0.89040    1.000
    C309     C        0.41200    0.13310    0.93680    1.000
    H227     H        0.41320    0.15560    0.96000    1.000
    C310     C        0.41500    0.08670    0.94670    1.000
    H228     H        0.41710    0.07750    0.97760    1.000
    C311     C        0.35540    0.31970    0.82620    1.000
    C312     C        0.38250    0.31390    0.78630    1.000
    H229     H        0.40950    0.29440    0.78460    1.000
    C313     C        0.37230    0.33740    0.74360    1.000
    H230     H        0.38820    0.32990    0.71640    1.000
    C314     C        0.47700    0.31690    0.91920    1.000
    C315     C        0.45010    0.35290    0.94160    1.000
    H231     H        0.41790    0.35440    0.93980    1.000
    C316     C        0.47690    0.38570    0.96660    1.000
    H232     H        0.46150    0.40840    0.98380    1.000
    N65      N        0.37510    0.24400    0.96060    1.000
    N66      N        0.39920    0.19060    0.86420    1.000
    N67      N        0.35290    0.29750    0.86880    1.000
    N68      N        0.46070    0.27680    0.89780    1.000
    C317     C        0.42300    0.15630    0.87990    1.000
    C318     C        0.44230    0.14660    0.92560    1.000
    H233     H        0.44180    0.16800    0.94980    1.000
    C319     C        0.46110    0.10380    0.92970    1.000
    H234     H        0.47520    0.09660    0.95780    1.000
    H235     H        0.30250    0.31840    0.91650    1.000
    C320     C        0.38770    0.35030    0.76110    1.000
    H236     H        0.41420    0.35390    0.74300    1.000
    C321     C        0.47470    0.32310    0.89850    1.000
    C322     C        0.44990    0.36470    0.90430    1.000
    H237     H        0.41760    0.36520    0.90510    1.000
    C323     C        0.47620    0.40540    0.90870    1.000
    H238     H        0.46070    0.43360    0.91180    1.000
    Zn18     Zn       0.60377    0.25197    0.10429    1.000
    C324     C        0.66440    0.22150    0.02560    1.000
    C325     C        0.70090    0.19980    0.05000    1.000
    H239     H        0.70140    0.19890    0.08230    1.000
    C326     C        0.73480    0.18030    0.02470    1.000
    H240     H        0.75950    0.16620    0.04020    1.000
    C327     C        0.59290    0.14470    0.10960    1.000
    C328     C        0.58800    0.13310    0.06320    1.000
    H241     H        0.58680    0.15560    0.04000    1.000
    C329     C        0.58500    0.08670    0.05330    1.000
    H242     H        0.58290    0.07750    0.02240    1.000
    C330     C        0.64460    0.31970    0.17380    1.000
    C331     C        0.61750    0.31390    0.21370    1.000
    H243     H        0.59050    0.29440    0.21540    1.000
    C332     C        0.62770    0.33740    0.25640    1.000
    H244     H        0.61180    0.32990    0.28360    1.000
    C333     C        0.52300    0.31690    0.08080    1.000
    C334     C        0.54990    0.35290    0.05840    1.000
    H245     H        0.58210    0.35440    0.06020    1.000
    C335     C        0.52310    0.38570    0.03340    1.000
    H246     H        0.53850    0.40840    0.01620    1.000
    N69      N        0.62490    0.24400    0.03940    1.000
    N70      N        0.60080    0.19060    0.13580    1.000
    N71      N        0.64710    0.29750    0.13120    1.000
    N72      N        0.53930    0.27680    0.10220    1.000
    C336     C        0.57700    0.15630    0.12010    1.000
    C337     C        0.55770    0.14660    0.07440    1.000
    H247     H        0.55820    0.16800    0.05020    1.000
    C338     C        0.53890    0.10380    0.07030    1.000
    H248     H        0.52480    0.09660    0.04220    1.000
    H249     H        0.69750    0.31840    0.08350    1.000
    C339     C        0.61230    0.35030    0.23890    1.000
    H250     H        0.58580    0.35390    0.25700    1.000
    C340     C        0.52530    0.32310    0.10150    1.000
    C341     C        0.55010    0.36470    0.09570    1.000
    H251     H        0.58240    0.36520    0.09490    1.000
    C342     C        0.52380    0.40540    0.09130    1.000
    H252     H        0.53930    0.43360    0.08820    1.000
    Zn19     Zn       0.60377    0.74803    0.89571    1.000
    C343     C        0.66440    0.77850    0.97440    1.000
    C344     C        0.70090    0.80020    0.95000    1.000
    H253     H        0.70140    0.80110    0.91770    1.000
    C345     C        0.73480    0.81970    0.97530    1.000
    H254     H        0.75950    0.83380    0.95980    1.000
    C346     C        0.59290    0.85530    0.89040    1.000
    C347     C        0.58800    0.86690    0.93680    1.000
    H255     H        0.58680    0.84440    0.96000    1.000
    C348     C        0.58500    0.91330    0.94670    1.000
    H256     H        0.58290    0.92250    0.97760    1.000
    C349     C        0.64460    0.68030    0.82620    1.000
    C350     C        0.61750    0.68610    0.78630    1.000
    H257     H        0.59050    0.70560    0.78460    1.000
    C351     C        0.62770    0.66260    0.74360    1.000
    H258     H        0.61180    0.67010    0.71640    1.000
    C352     C        0.52300    0.68310    0.91920    1.000
    C353     C        0.54990    0.64710    0.94160    1.000
    H259     H        0.58210    0.64560    0.93980    1.000
    C354     C        0.52310    0.61430    0.96660    1.000
    H260     H        0.53850    0.59160    0.98380    1.000
    N73      N        0.62490    0.75600    0.96060    1.000
    N74      N        0.60080    0.80940    0.86420    1.000
    N75      N        0.64710    0.70250    0.86880    1.000
    N76      N        0.53930    0.72320    0.89780    1.000
    C355     C        0.57700    0.84370    0.87990    1.000
    C356     C        0.55770    0.85340    0.92560    1.000
    H261     H        0.55820    0.83200    0.94980    1.000
    C357     C        0.53890    0.89620    0.92970    1.000
    H262     H        0.52480    0.90340    0.95780    1.000
    H263     H        0.69750    0.68160    0.91650    1.000
    C358     C        0.61230    0.64970    0.76110    1.000
    H264     H        0.58580    0.64610    0.74300    1.000
    C359     C        0.52530    0.67690    0.89850    1.000
    C360     C        0.55010    0.63530    0.90430    1.000
    H265     H        0.58240    0.63480    0.90510    1.000
    C361     C        0.52380    0.59460    0.90870    1.000
    H266     H        0.53930    0.56640    0.91180    1.000
    Zn20     Zn       0.39623    0.74803    0.10429    1.000
    C362     C        0.33560    0.77850    0.02560    1.000
    C363     C        0.29910    0.80020    0.05000    1.000
    H267     H        0.29860    0.80110    0.08230    1.000
    C364     C        0.26520    0.81970    0.02470    1.000
    H268     H        0.24050    0.83380    0.04020    1.000
    C365     C        0.40710    0.85530    0.10960    1.000
    C366     C        0.41200    0.86690    0.06320    1.000
    H269     H        0.41320    0.84440    0.04000    1.000
    C367     C        0.41500    0.91330    0.05330    1.000
    H270     H        0.41710    0.92250    0.02240    1.000
    C368     C        0.35540    0.68030    0.17380    1.000
    C369     C        0.38250    0.68610    0.21370    1.000
    H271     H        0.40950    0.70560    0.21540    1.000
    C370     C        0.37230    0.66260    0.25640    1.000
    H272     H        0.38820    0.67010    0.28360    1.000
    C371     C        0.47700    0.68310    0.08080    1.000
    C372     C        0.45010    0.64710    0.05840    1.000
    H273     H        0.41790    0.64560    0.06020    1.000
    C373     C        0.47690    0.61430    0.03340    1.000
    H274     H        0.46150    0.59160    0.01620    1.000
    N77      N        0.37510    0.75600    0.03940    1.000
    N78      N        0.39920    0.80940    0.13580    1.000
    N79      N        0.35290    0.70250    0.13120    1.000
    N80      N        0.46070    0.72320    0.10220    1.000
    C374     C        0.42300    0.84370    0.12010    1.000
    C375     C        0.44230    0.85340    0.07440    1.000
    H275     H        0.44180    0.83200    0.05020    1.000
    C376     C        0.46110    0.89620    0.07030    1.000
    H276     H        0.47520    0.90340    0.04220    1.000
    H277     H        0.30250    0.68160    0.08350    1.000
    C377     C        0.38770    0.64970    0.23890    1.000
    H278     H        0.41420    0.64610    0.25700    1.000
    C378     C        0.47470    0.67690    0.10150    1.000
    C379     C        0.44990    0.63530    0.09570    1.000
    H279     H        0.41760    0.63480    0.09490    1.000
    C380     C        0.47620    0.59460    0.09130    1.000
    H280     H        0.46070    0.56640    0.08820    1.000
    Zn21     Zn       0.25197    0.10429    0.60377    1.000
    C381     C        0.22150    0.02560    0.66440    1.000
    C382     C        0.19980    0.05000    0.70090    1.000
    H281     H        0.19890    0.08230    0.70140    1.000
    C383     C        0.18030    0.02470    0.73480    1.000
    H282     H        0.16620    0.04020    0.75950    1.000
    C384     C        0.14470    0.10960    0.59290    1.000
    C385     C        0.13310    0.06320    0.58800    1.000
    H283     H        0.15560    0.04000    0.58680    1.000
    C386     C        0.08670    0.05330    0.58500    1.000
    H284     H        0.07750    0.02240    0.58290    1.000
    C387     C        0.31970    0.17380    0.64460    1.000
    C388     C        0.31390    0.21370    0.61750    1.000
    H285     H        0.29440    0.21540    0.59050    1.000
    C389     C        0.33740    0.25640    0.62770    1.000
    H286     H        0.32990    0.28360    0.61180    1.000
    C390     C        0.31690    0.08080    0.52300    1.000
    C391     C        0.35290    0.05840    0.54990    1.000
    H287     H        0.35440    0.06020    0.58210    1.000
    C392     C        0.38570    0.03340    0.52310    1.000
    H288     H        0.40840    0.01620    0.53850    1.000
    N81      N        0.24400    0.03940    0.62490    1.000
    N82      N        0.19060    0.13580    0.60080    1.000
    N83      N        0.29750    0.13120    0.64710    1.000
    N84      N        0.27680    0.10220    0.53930    1.000
    C393     C        0.15630    0.12010    0.57700    1.000
    C394     C        0.14660    0.07440    0.55770    1.000
    H289     H        0.16800    0.05020    0.55820    1.000
    C395     C        0.10380    0.07030    0.53890    1.000
    H290     H        0.09660    0.04220    0.52480    1.000
    H291     H        0.31840    0.08350    0.69750    1.000
    C396     C        0.35030    0.23890    0.61230    1.000
    H292     H        0.35390    0.25700    0.58580    1.000
    C397     C        0.32310    0.10150    0.52530    1.000
    C398     C        0.36470    0.09570    0.55010    1.000
    H293     H        0.36520    0.09490    0.58240    1.000
    C399     C        0.40540    0.09130    0.52380    1.000
    H294     H        0.43360    0.08820    0.53930    1.000
    Zn22     Zn       0.25197    0.89571    0.39623    1.000
    C400     C        0.22150    0.97440    0.33560    1.000
    C401     C        0.19980    0.95000    0.29910    1.000
    H295     H        0.19890    0.91770    0.29860    1.000
    C402     C        0.18030    0.97530    0.26520    1.000
    H296     H        0.16620    0.95980    0.24050    1.000
    C403     C        0.14470    0.89040    0.40710    1.000
    C404     C        0.13310    0.93680    0.41200    1.000
    H297     H        0.15560    0.96000    0.41320    1.000
    C405     C        0.08670    0.94670    0.41500    1.000
    H298     H        0.07750    0.97760    0.41710    1.000
    C406     C        0.31970    0.82620    0.35540    1.000
    C407     C        0.31390    0.78630    0.38250    1.000
    H299     H        0.29440    0.78460    0.40950    1.000
    C408     C        0.33740    0.74360    0.37230    1.000
    H300     H        0.32990    0.71640    0.38820    1.000
    C409     C        0.31690    0.91920    0.47700    1.000
    C410     C        0.35290    0.94160    0.45010    1.000
    H301     H        0.35440    0.93980    0.41790    1.000
    C411     C        0.38570    0.96660    0.47690    1.000
    H302     H        0.40840    0.98380    0.46150    1.000
    N85      N        0.24400    0.96060    0.37510    1.000
    N86      N        0.19060    0.86420    0.39920    1.000
    N87      N        0.29750    0.86880    0.35290    1.000
    N88      N        0.27680    0.89780    0.46070    1.000
    C412     C        0.15630    0.87990    0.42300    1.000
    C413     C        0.14660    0.92560    0.44230    1.000
    H303     H        0.16800    0.94980    0.44180    1.000
    C414     C        0.10380    0.92970    0.46110    1.000
    H304     H        0.09660    0.95780    0.47520    1.000
    H305     H        0.31840    0.91650    0.30250    1.000
    C415     C        0.35030    0.76110    0.38770    1.000
    H306     H        0.35390    0.74300    0.41420    1.000
    C416     C        0.32310    0.89850    0.47470    1.000
    C417     C        0.36470    0.90430    0.44990    1.000
    H307     H        0.36520    0.90510    0.41760    1.000
    C418     C        0.40540    0.90870    0.47620    1.000
    H308     H        0.43360    0.91180    0.46070    1.000
    Zn23     Zn       0.74803    0.10429    0.39623    1.000
    C419     C        0.77850    0.02560    0.33560    1.000
    C420     C        0.80020    0.05000    0.29910    1.000
    H309     H        0.80110    0.08230    0.29860    1.000
    C421     C        0.81970    0.02470    0.26520    1.000
    H310     H        0.83380    0.04020    0.24050    1.000
    C422     C        0.85530    0.10960    0.40710    1.000
    C423     C        0.86690    0.06320    0.41200    1.000
    H311     H        0.84440    0.04000    0.41320    1.000
    C424     C        0.91330    0.05330    0.41500    1.000
    H312     H        0.92250    0.02240    0.41710    1.000
    C425     C        0.68030    0.17380    0.35540    1.000
    C426     C        0.68610    0.21370    0.38250    1.000
    H313     H        0.70560    0.21540    0.40950    1.000
    C427     C        0.66260    0.25640    0.37230    1.000
    H314     H        0.67010    0.28360    0.38820    1.000
    C428     C        0.68310    0.08080    0.47700    1.000
    C429     C        0.64710    0.05840    0.45010    1.000
    H315     H        0.64560    0.06020    0.41790    1.000
    C430     C        0.61430    0.03340    0.47690    1.000
    H316     H        0.59160    0.01620    0.46150    1.000
    N89      N        0.75600    0.03940    0.37510    1.000
    N90      N        0.80940    0.13580    0.39920    1.000
    N91      N        0.70250    0.13120    0.35290    1.000
    N92      N        0.72320    0.10220    0.46070    1.000
    C431     C        0.84370    0.12010    0.42300    1.000
    C432     C        0.85340    0.07440    0.44230    1.000
    H317     H        0.83200    0.05020    0.44180    1.000
    C433     C        0.89620    0.07030    0.46110    1.000
    H318     H        0.90340    0.04220    0.47520    1.000
    H319     H        0.68160    0.08350    0.30250    1.000
    C434     C        0.64970    0.23890    0.38770    1.000
    H320     H        0.64610    0.25700    0.41420    1.000
    C435     C        0.67690    0.10150    0.47470    1.000
    C436     C        0.63530    0.09570    0.44990    1.000
    H321     H        0.63480    0.09490    0.41760    1.000
    C437     C        0.59460    0.09130    0.47620    1.000
    H322     H        0.56640    0.08820    0.46070    1.000
    Zn24     Zn       0.74803    0.89571    0.60377    1.000
    C438     C        0.77850    0.97440    0.66440    1.000
    C439     C        0.80020    0.95000    0.70090    1.000
    H323     H        0.80110    0.91770    0.70140    1.000
    C440     C        0.81970    0.97530    0.73480    1.000
    H324     H        0.83380    0.95980    0.75950    1.000
    C441     C        0.85530    0.89040    0.59290    1.000
    C442     C        0.86690    0.93680    0.58800    1.000
    H325     H        0.84440    0.96000    0.58680    1.000
    C443     C        0.91330    0.94670    0.58500    1.000
    H326     H        0.92250    0.97760    0.58290    1.000
    C444     C        0.68030    0.82620    0.64460    1.000
    C445     C        0.68610    0.78630    0.61750    1.000
    H327     H        0.70560    0.78460    0.59050    1.000
    C446     C        0.66260    0.74360    0.62770    1.000
    H328     H        0.67010    0.71640    0.61180    1.000
    C447     C        0.68310    0.91920    0.52300    1.000
    C448     C        0.64710    0.94160    0.54990    1.000
    H329     H        0.64560    0.93980    0.58210    1.000
    C449     C        0.61430    0.96660    0.52310    1.000
    H330     H        0.59160    0.98380    0.53850    1.000
    N93      N        0.75600    0.96060    0.62490    1.000
    N94      N        0.80940    0.86420    0.60080    1.000
    N95      N        0.70250    0.86880    0.64710    1.000
    N96      N        0.72320    0.89780    0.53930    1.000
    C450     C        0.84370    0.87990    0.57700    1.000
    C451     C        0.85340    0.92560    0.55770    1.000
    H331     H        0.83200    0.94980    0.55820    1.000
    C452     C        0.89620    0.92970    0.53890    1.000
    H332     H        0.90340    0.95780    0.52480    1.000
    H333     H        0.68160    0.91650    0.69750    1.000
    C453     C        0.64970    0.76110    0.61230    1.000
    H334     H        0.64610    0.74300    0.58580    1.000
    C454     C        0.67690    0.89850    0.52530    1.000
    C455     C        0.63530    0.90430    0.55010    1.000
    H335     H        0.63480    0.90510    0.58240    1.000
    C456     C        0.59460    0.90870    0.52380    1.000
    H336     H        0.56640    0.91180    0.53930    1.000
    Zn25     Zn       0.60377    0.89571    0.74803    1.000
    C457     C        0.66440    0.97440    0.77850    1.000
    C458     C        0.70090    0.95000    0.80020    1.000
    H337     H        0.70140    0.91770    0.80110    1.000
    C459     C        0.73480    0.97530    0.81970    1.000
    H338     H        0.75950    0.95980    0.83380    1.000
    C460     C        0.59290    0.89040    0.85530    1.000
    C461     C        0.58800    0.93680    0.86690    1.000
    H339     H        0.58680    0.96000    0.84440    1.000
    C462     C        0.58500    0.94670    0.91330    1.000
    H340     H        0.58290    0.97760    0.92250    1.000
    C463     C        0.64460    0.82620    0.68030    1.000
    C464     C        0.61750    0.78630    0.68610    1.000
    H341     H        0.59050    0.78460    0.70560    1.000
    C465     C        0.62770    0.74360    0.66260    1.000
    H342     H        0.61180    0.71640    0.67010    1.000
    C466     C        0.52300    0.91920    0.68310    1.000
    C467     C        0.54990    0.94160    0.64710    1.000
    H343     H        0.58210    0.93980    0.64560    1.000
    C468     C        0.52310    0.96660    0.61430    1.000
    H344     H        0.53850    0.98380    0.59160    1.000
    N97      N        0.62490    0.96060    0.75600    1.000
    N98      N        0.60080    0.86420    0.80940    1.000
    N99      N        0.64710    0.86880    0.70250    1.000
    N100     N        0.53930    0.89780    0.72320    1.000
    C469     C        0.57700    0.87990    0.84370    1.000
    C470     C        0.55770    0.92560    0.85340    1.000
    H345     H        0.55820    0.94980    0.83200    1.000
    C471     C        0.53890    0.92970    0.89620    1.000
    H346     H        0.52480    0.95780    0.90340    1.000
    H347     H        0.69750    0.91650    0.68160    1.000
    C472     C        0.61230    0.76110    0.64970    1.000
    H348     H        0.58580    0.74300    0.64610    1.000
    C473     C        0.52530    0.89850    0.67690    1.000
    C474     C        0.55010    0.90430    0.63530    1.000
    H349     H        0.58240    0.90510    0.63480    1.000
    C475     C        0.52380    0.90870    0.59460    1.000
    H350     H        0.53930    0.91180    0.56640    1.000
    Zn26     Zn       0.39623    0.10429    0.74803    1.000
    C476     C        0.33560    0.02560    0.77850    1.000
    C477     C        0.29910    0.05000    0.80020    1.000
    H351     H        0.29860    0.08230    0.80110    1.000
    C478     C        0.26520    0.02470    0.81970    1.000
    H352     H        0.24050    0.04020    0.83380    1.000
    C479     C        0.40710    0.10960    0.85530    1.000
    C480     C        0.41200    0.06320    0.86690    1.000
    H353     H        0.41320    0.04000    0.84440    1.000
    C481     C        0.41500    0.05330    0.91330    1.000
    H354     H        0.41710    0.02240    0.92250    1.000
    C482     C        0.35540    0.17380    0.68030    1.000
    C483     C        0.38250    0.21370    0.68610    1.000
    H355     H        0.40950    0.21540    0.70560    1.000
    C484     C        0.37230    0.25640    0.66260    1.000
    H356     H        0.38820    0.28360    0.67010    1.000
    C485     C        0.47700    0.08080    0.68310    1.000
    C486     C        0.45010    0.05840    0.64710    1.000
    H357     H        0.41790    0.06020    0.64560    1.000
    C487     C        0.47690    0.03340    0.61430    1.000
    H358     H        0.46150    0.01620    0.59160    1.000
    N101     N        0.37510    0.03940    0.75600    1.000
    N102     N        0.39920    0.13580    0.80940    1.000
    N103     N        0.35290    0.13120    0.70250    1.000
    N104     N        0.46070    0.10220    0.72320    1.000
    C488     C        0.42300    0.12010    0.84370    1.000
    C489     C        0.44230    0.07440    0.85340    1.000
    H359     H        0.44180    0.05020    0.83200    1.000
    C490     C        0.46110    0.07030    0.89620    1.000
    H360     H        0.47520    0.04220    0.90340    1.000
    H361     H        0.30250    0.08350    0.68160    1.000
    C491     C        0.38770    0.23890    0.64970    1.000
    H362     H        0.41420    0.25700    0.64610    1.000
    C492     C        0.47470    0.10150    0.67690    1.000
    C493     C        0.44990    0.09570    0.63530    1.000
    H363     H        0.41760    0.09490    0.63480    1.000
    C494     C        0.47620    0.09130    0.59460    1.000
    H364     H        0.46070    0.08820    0.56640    1.000
    Zn27     Zn       0.39623    0.89571    0.25197    1.000
    C495     C        0.33560    0.97440    0.22150    1.000
    C496     C        0.29910    0.95000    0.19980    1.000
    H365     H        0.29860    0.91770    0.19890    1.000
    C497     C        0.26520    0.97530    0.18030    1.000
    H366     H        0.24050    0.95980    0.16620    1.000
    C498     C        0.40710    0.89040    0.14470    1.000
    C499     C        0.41200    0.93680    0.13310    1.000
    H367     H        0.41320    0.96000    0.15560    1.000
    C500     C        0.41500    0.94670    0.08670    1.000
    H368     H        0.41710    0.97760    0.07750    1.000
    C501     C        0.35540    0.82620    0.31970    1.000
    C502     C        0.38250    0.78630    0.31390    1.000
    H369     H        0.40950    0.78460    0.29440    1.000
    C503     C        0.37230    0.74360    0.33740    1.000
    H370     H        0.38820    0.71640    0.32990    1.000
    C504     C        0.47700    0.91920    0.31690    1.000
    C505     C        0.45010    0.94160    0.35290    1.000
    H371     H        0.41790    0.93980    0.35440    1.000
    C506     C        0.47690    0.96660    0.38570    1.000
    H372     H        0.46150    0.98380    0.40840    1.000
    N105     N        0.37510    0.96060    0.24400    1.000
    N106     N        0.39920    0.86420    0.19060    1.000
    N107     N        0.35290    0.86880    0.29750    1.000
    N108     N        0.46070    0.89780    0.27680    1.000
    C507     C        0.42300    0.87990    0.15630    1.000
    C508     C        0.44230    0.92560    0.14660    1.000
    H373     H        0.44180    0.94980    0.16800    1.000
    C509     C        0.46110    0.92970    0.10380    1.000
    H374     H        0.47520    0.95780    0.09660    1.000
    H375     H        0.30250    0.91650    0.31840    1.000
    C510     C        0.38770    0.76110    0.35030    1.000
    H376     H        0.41420    0.74300    0.35390    1.000
    C511     C        0.47470    0.89850    0.32310    1.000
    C512     C        0.44990    0.90430    0.36470    1.000
    H377     H        0.41760    0.90510    0.36520    1.000
    C513     C        0.47620    0.90870    0.40540    1.000
    H378     H        0.46070    0.91180    0.43360    1.000
    Zn28     Zn       0.60377    0.10429    0.25197    1.000
    C514     C        0.66440    0.02560    0.22150    1.000
    C515     C        0.70090    0.05000    0.19980    1.000
    H379     H        0.70140    0.08230    0.19890    1.000
    C516     C        0.73480    0.02470    0.18030    1.000
    H380     H        0.75950    0.04020    0.16620    1.000
    C517     C        0.59290    0.10960    0.14470    1.000
    C518     C        0.58800    0.06320    0.13310    1.000
    H381     H        0.58680    0.04000    0.15560    1.000
    C519     C        0.58500    0.05330    0.08670    1.000
    H382     H        0.58290    0.02240    0.07750    1.000
    C520     C        0.64460    0.17380    0.31970    1.000
    C521     C        0.61750    0.21370    0.31390    1.000
    H383     H        0.59050    0.21540    0.29440    1.000
    C522     C        0.62770    0.25640    0.33740    1.000
    H384     H        0.61180    0.28360    0.32990    1.000
    C523     C        0.52300    0.08080    0.31690    1.000
    C524     C        0.54990    0.05840    0.35290    1.000
    H385     H        0.58210    0.06020    0.35440    1.000
    C525     C        0.52310    0.03340    0.38570    1.000
    H386     H        0.53850    0.01620    0.40840    1.000
    N109     N        0.62490    0.03940    0.24400    1.000
    N110     N        0.60080    0.13580    0.19060    1.000
    N111     N        0.64710    0.13120    0.29750    1.000
    N112     N        0.53930    0.10220    0.27680    1.000
    C526     C        0.57700    0.12010    0.15630    1.000
    C527     C        0.55770    0.07440    0.14660    1.000
    H387     H        0.55820    0.05020    0.16800    1.000
    C528     C        0.53890    0.07030    0.10380    1.000
    H388     H        0.52480    0.04220    0.09660    1.000
    H389     H        0.69750    0.08350    0.31840    1.000
    C529     C        0.61230    0.23890    0.35030    1.000
    H390     H        0.58580    0.25700    0.35390    1.000
    C530     C        0.52530    0.10150    0.32310    1.000
    C531     C        0.55010    0.09570    0.36470    1.000
    H391     H        0.58240    0.09490    0.36520    1.000
    C532     C        0.52380    0.09130    0.40540    1.000
    H392     H        0.53930    0.08820    0.43360    1.000
    Zn29     Zn       0.74803    0.60377    0.89571    1.000
    C533     C        0.77850    0.66440    0.97440    1.000
    C534     C        0.80020    0.70090    0.95000    1.000
    H393     H        0.80110    0.70140    0.91770    1.000
    C535     C        0.81970    0.73480    0.97530    1.000
    H394     H        0.83380    0.75950    0.95980    1.000
    C536     C        0.85530    0.59290    0.89040    1.000
    C537     C        0.86690    0.58800    0.93680    1.000
    H395     H        0.84440    0.58680    0.96000    1.000
    C538     C        0.91330    0.58500    0.94670    1.000
    H396     H        0.92250    0.58290    0.97760    1.000
    C539     C        0.68030    0.64460    0.82620    1.000
    C540     C        0.68610    0.61750    0.78630    1.000
    H397     H        0.70560    0.59050    0.78460    1.000
    C541     C        0.66260    0.62770    0.74360    1.000
    H398     H        0.67010    0.61180    0.71640    1.000
    C542     C        0.68310    0.52300    0.91920    1.000
    C543     C        0.64710    0.54990    0.94160    1.000
    H399     H        0.64560    0.58210    0.93980    1.000
    C544     C        0.61430    0.52310    0.96660    1.000
    H400     H        0.59160    0.53850    0.98380    1.000
    N113     N        0.75600    0.62490    0.96060    1.000
    N114     N        0.80940    0.60080    0.86420    1.000
    N115     N        0.70250    0.64710    0.86880    1.000
    N116     N        0.72320    0.53930    0.89780    1.000
    C545     C        0.84370    0.57700    0.87990    1.000
    C546     C        0.85340    0.55770    0.92560    1.000
    H401     H        0.83200    0.55820    0.94980    1.000
    C547     C        0.89620    0.53890    0.92970    1.000
    H402     H        0.90340    0.52480    0.95780    1.000
    H403     H        0.68160    0.69750    0.91650    1.000
    C548     C        0.64970    0.61230    0.76110    1.000
    H404     H        0.64610    0.58580    0.74300    1.000
    C549     C        0.67690    0.52530    0.89850    1.000
    C550     C        0.63530    0.55010    0.90430    1.000
    H405     H        0.63480    0.58240    0.90510    1.000
    C551     C        0.59460    0.52380    0.90870    1.000
    H406     H        0.56640    0.53930    0.91180    1.000
    Zn30     Zn       0.74803    0.39623    0.10429    1.000
    C552     C        0.77850    0.33560    0.02560    1.000
    C553     C        0.80020    0.29910    0.05000    1.000
    H407     H        0.80110    0.29860    0.08230    1.000
    C554     C        0.81970    0.26520    0.02470    1.000
    H408     H        0.83380    0.24050    0.04020    1.000
    C555     C        0.85530    0.40710    0.10960    1.000
    C556     C        0.86690    0.41200    0.06320    1.000
    H409     H        0.84440    0.41320    0.04000    1.000
    C557     C        0.91330    0.41500    0.05330    1.000
    H410     H        0.92250    0.41710    0.02240    1.000
    C558     C        0.68030    0.35540    0.17380    1.000
    C559     C        0.68610    0.38250    0.21370    1.000
    H411     H        0.70560    0.40950    0.21540    1.000
    C560     C        0.66260    0.37230    0.25640    1.000
    H412     H        0.67010    0.38820    0.28360    1.000
    C561     C        0.68310    0.47700    0.08080    1.000
    C562     C        0.64710    0.45010    0.05840    1.000
    H413     H        0.64560    0.41790    0.06020    1.000
    C563     C        0.61430    0.47690    0.03340    1.000
    H414     H        0.59160    0.46150    0.01620    1.000
    N117     N        0.75600    0.37510    0.03940    1.000
    N118     N        0.80940    0.39920    0.13580    1.000
    N119     N        0.70250    0.35290    0.13120    1.000
    N120     N        0.72320    0.46070    0.10220    1.000
    C564     C        0.84370    0.42300    0.12010    1.000
    C565     C        0.85340    0.44230    0.07440    1.000
    H415     H        0.83200    0.44180    0.05020    1.000
    C566     C        0.89620    0.46110    0.07030    1.000
    H416     H        0.90340    0.47520    0.04220    1.000
    H417     H        0.68160    0.30250    0.08350    1.000
    C567     C        0.64970    0.38770    0.23890    1.000
    H418     H        0.64610    0.41420    0.25700    1.000
    C568     C        0.67690    0.47470    0.10150    1.000
    C569     C        0.63530    0.44990    0.09570    1.000
    H419     H        0.63480    0.41760    0.09490    1.000
    C570     C        0.59460    0.47620    0.09130    1.000
    H420     H        0.56640    0.46070    0.08820    1.000
    Zn31     Zn       0.25197    0.39623    0.89571    1.000
    C571     C        0.22150    0.33560    0.97440    1.000
    C572     C        0.19980    0.29910    0.95000    1.000
    H421     H        0.19890    0.29860    0.91770    1.000
    C573     C        0.18030    0.26520    0.97530    1.000
    H422     H        0.16620    0.24050    0.95980    1.000
    C574     C        0.14470    0.40710    0.89040    1.000
    C575     C        0.13310    0.41200    0.93680    1.000
    H423     H        0.15560    0.41320    0.96000    1.000
    C576     C        0.08670    0.41500    0.94670    1.000
    H424     H        0.07750    0.41710    0.97760    1.000
    C577     C        0.31970    0.35540    0.82620    1.000
    C578     C        0.31390    0.38250    0.78630    1.000
    H425     H        0.29440    0.40950    0.78460    1.000
    C579     C        0.33740    0.37230    0.74360    1.000
    H426     H        0.32990    0.38820    0.71640    1.000
    C580     C        0.31690    0.47700    0.91920    1.000
    C581     C        0.35290    0.45010    0.94160    1.000
    H427     H        0.35440    0.41790    0.93980    1.000
    C582     C        0.38570    0.47690    0.96660    1.000
    H428     H        0.40840    0.46150    0.98380    1.000
    N121     N        0.24400    0.37510    0.96060    1.000
    N122     N        0.19060    0.39920    0.86420    1.000
    N123     N        0.29750    0.35290    0.86880    1.000
    N124     N        0.27680    0.46070    0.89780    1.000
    C583     C        0.15630    0.42300    0.87990    1.000
    C584     C        0.14660    0.44230    0.92560    1.000
    H429     H        0.16800    0.44180    0.94980    1.000
    C585     C        0.10380    0.46110    0.92970    1.000
    H430     H        0.09660    0.47520    0.95780    1.000
    H431     H        0.31840    0.30250    0.91650    1.000
    C586     C        0.35030    0.38770    0.76110    1.000
    H432     H        0.35390    0.41420    0.74300    1.000
    C587     C        0.32310    0.47470    0.89850    1.000
    C588     C        0.36470    0.44990    0.90430    1.000
    H433     H        0.36520    0.41760    0.90510    1.000
    C589     C        0.40540    0.47620    0.90870    1.000
    H434     H        0.43360    0.46070    0.91180    1.000
    Zn32     Zn       0.25197    0.60377    0.10429    1.000
    C590     C        0.22150    0.66440    0.02560    1.000
    C591     C        0.19980    0.70090    0.05000    1.000
    H435     H        0.19890    0.70140    0.08230    1.000
    C592     C        0.18030    0.73480    0.02470    1.000
    H436     H        0.16620    0.75950    0.04020    1.000
    C593     C        0.14470    0.59290    0.10960    1.000
    C594     C        0.13310    0.58800    0.06320    1.000
    H437     H        0.15560    0.58680    0.04000    1.000
    C595     C        0.08670    0.58500    0.05330    1.000
    H438     H        0.07750    0.58290    0.02240    1.000
    C596     C        0.31970    0.64460    0.17380    1.000
    C597     C        0.31390    0.61750    0.21370    1.000
    H439     H        0.29440    0.59050    0.21540    1.000
    C598     C        0.33740    0.62770    0.25640    1.000
    H440     H        0.32990    0.61180    0.28360    1.000
    C599     C        0.31690    0.52300    0.08080    1.000
    C600     C        0.35290    0.54990    0.05840    1.000
    H441     H        0.35440    0.58210    0.06020    1.000
    C601     C        0.38570    0.52310    0.03340    1.000
    H442     H        0.40840    0.53850    0.01620    1.000
    N125     N        0.24400    0.62490    0.03940    1.000
    N126     N        0.19060    0.60080    0.13580    1.000
    N127     N        0.29750    0.64710    0.13120    1.000
    N128     N        0.27680    0.53930    0.10220    1.000
    C602     C        0.15630    0.57700    0.12010    1.000
    C603     C        0.14660    0.55770    0.07440    1.000
    H443     H        0.16800    0.55820    0.05020    1.000
    C604     C        0.10380    0.53890    0.07030    1.000
    H444     H        0.09660    0.52480    0.04220    1.000
    H445     H        0.31840    0.69750    0.08350    1.000
    C605     C        0.35030    0.61230    0.23890    1.000
    H446     H        0.35390    0.58580    0.25700    1.000
    C606     C        0.32310    0.52530    0.10150    1.000
    C607     C        0.36470    0.55010    0.09570    1.000
    H447     H        0.36520    0.58240    0.09490    1.000
    C608     C        0.40540    0.52380    0.09130    1.000
    H448     H        0.43360    0.53930    0.08820    1.000
    Zn33     Zn       0.89571    0.74803    0.60377    1.000
    C609     C        0.97440    0.77850    0.66440    1.000
    C610     C        0.95000    0.80020    0.70090    1.000
    H449     H        0.91770    0.80110    0.70140    1.000
    C611     C        0.97530    0.81970    0.73480    1.000
    H450     H        0.95980    0.83380    0.75950    1.000
    C612     C        0.89040    0.85530    0.59290    1.000
    C613     C        0.93680    0.86690    0.58800    1.000
    H451     H        0.96000    0.84440    0.58680    1.000
    C614     C        0.94670    0.91330    0.58500    1.000
    H452     H        0.97760    0.92250    0.58290    1.000
    C615     C        0.82620    0.68030    0.64460    1.000
    C616     C        0.78630    0.68610    0.61750    1.000
    H453     H        0.78460    0.70560    0.59050    1.000
    C617     C        0.74360    0.66260    0.62770    1.000
    H454     H        0.71640    0.67010    0.61180    1.000
    C618     C        0.91920    0.68310    0.52300    1.000
    C619     C        0.94160    0.64710    0.54990    1.000
    H455     H        0.93980    0.64560    0.58210    1.000
    C620     C        0.96660    0.61430    0.52310    1.000
    H456     H        0.98380    0.59160    0.53850    1.000
    N129     N        0.96060    0.75600    0.62490    1.000
    N130     N        0.86420    0.80940    0.60080    1.000
    N131     N        0.86880    0.70250    0.64710    1.000
    N132     N        0.89780    0.72320    0.53930    1.000
    C621     C        0.87990    0.84370    0.57700    1.000
    C622     C        0.92560    0.85340    0.55770    1.000
    H457     H        0.94980    0.83200    0.55820    1.000
    C623     C        0.92970    0.89620    0.53890    1.000
    H458     H        0.95780    0.90340    0.52480    1.000
    H459     H        0.91650    0.68160    0.69750    1.000
    C624     C        0.76110    0.64970    0.61230    1.000
    H460     H        0.74300    0.64610    0.58580    1.000
    C625     C        0.89850    0.67690    0.52530    1.000
    C626     C        0.90430    0.63530    0.55010    1.000
    H461     H        0.90510    0.63480    0.58240    1.000
    C627     C        0.90870    0.59460    0.52380    1.000
    H462     H        0.91180    0.56640    0.53930    1.000
    Zn34     Zn       0.10429    0.74803    0.39623    1.000
    C628     C        0.02560    0.77850    0.33560    1.000
    C629     C        0.05000    0.80020    0.29910    1.000
    H463     H        0.08230    0.80110    0.29860    1.000
    C630     C        0.02470    0.81970    0.26520    1.000
    H464     H        0.04020    0.83380    0.24050    1.000
    C631     C        0.10960    0.85530    0.40710    1.000
    C632     C        0.06320    0.86690    0.41200    1.000
    H465     H        0.04000    0.84440    0.41320    1.000
    C633     C        0.05330    0.91330    0.41500    1.000
    H466     H        0.02240    0.92250    0.41710    1.000
    C634     C        0.17380    0.68030    0.35540    1.000
    C635     C        0.21370    0.68610    0.38250    1.000
    H467     H        0.21540    0.70560    0.40950    1.000
    C636     C        0.25640    0.66260    0.37230    1.000
    H468     H        0.28360    0.67010    0.38820    1.000
    C637     C        0.08080    0.68310    0.47700    1.000
    C638     C        0.05840    0.64710    0.45010    1.000
    H469     H        0.06020    0.64560    0.41790    1.000
    C639     C        0.03340    0.61430    0.47690    1.000
    H470     H        0.01620    0.59160    0.46150    1.000
    N133     N        0.03940    0.75600    0.37510    1.000
    N134     N        0.13580    0.80940    0.39920    1.000
    N135     N        0.13120    0.70250    0.35290    1.000
    N136     N        0.10220    0.72320    0.46070    1.000
    C640     C        0.12010    0.84370    0.42300    1.000
    C641     C        0.07440    0.85340    0.44230    1.000
    H471     H        0.05020    0.83200    0.44180    1.000
    C642     C        0.07030    0.89620    0.46110    1.000
    H472     H        0.04220    0.90340    0.47520    1.000
    H473     H        0.08350    0.68160    0.30250    1.000
    C643     C        0.23890    0.64970    0.38770    1.000
    H474     H        0.25700    0.64610    0.41420    1.000
    C644     C        0.10150    0.67690    0.47470    1.000
    C645     C        0.09570    0.63530    0.44990    1.000
    H475     H        0.09490    0.63480    0.41760    1.000
    C646     C        0.09130    0.59460    0.47620    1.000
    H476     H        0.08820    0.56640    0.46070    1.000
    Zn35     Zn       0.89571    0.25197    0.39623    1.000
    C647     C        0.97440    0.22150    0.33560    1.000
    C648     C        0.95000    0.19980    0.29910    1.000
    H477     H        0.91770    0.19890    0.29860    1.000
    C649     C        0.97530    0.18030    0.26520    1.000
    H478     H        0.95980    0.16620    0.24050    1.000
    C650     C        0.89040    0.14470    0.40710    1.000
    C651     C        0.93680    0.13310    0.41200    1.000
    H479     H        0.96000    0.15560    0.41320    1.000
    C652     C        0.94670    0.08670    0.41500    1.000
    H480     H        0.97760    0.07750    0.41710    1.000
    C653     C        0.82620    0.31970    0.35540    1.000
    C654     C        0.78630    0.31390    0.38250    1.000
    H481     H        0.78460    0.29440    0.40950    1.000
    C655     C        0.74360    0.33740    0.37230    1.000
    H482     H        0.71640    0.32990    0.38820    1.000
    C656     C        0.91920    0.31690    0.47700    1.000
    C657     C        0.94160    0.35290    0.45010    1.000
    H483     H        0.93980    0.35440    0.41790    1.000
    C658     C        0.96660    0.38570    0.47690    1.000
    H484     H        0.98380    0.40840    0.46150    1.000
    N137     N        0.96060    0.24400    0.37510    1.000
    N138     N        0.86420    0.19060    0.39920    1.000
    N139     N        0.86880    0.29750    0.35290    1.000
    N140     N        0.89780    0.27680    0.46070    1.000
    C659     C        0.87990    0.15630    0.42300    1.000
    C660     C        0.92560    0.14660    0.44230    1.000
    H485     H        0.94980    0.16800    0.44180    1.000
    C661     C        0.92970    0.10380    0.46110    1.000
    H486     H        0.95780    0.09660    0.47520    1.000
    H487     H        0.91650    0.31840    0.30250    1.000
    C662     C        0.76110    0.35030    0.38770    1.000
    H488     H        0.74300    0.35390    0.41420    1.000
    C663     C        0.89850    0.32310    0.47470    1.000
    C664     C        0.90430    0.36470    0.44990    1.000
    H489     H        0.90510    0.36520    0.41760    1.000
    C665     C        0.90870    0.40540    0.47620    1.000
    H490     H        0.91180    0.43360    0.46070    1.000
    Zn36     Zn       0.10429    0.25197    0.60377    1.000
    C666     C        0.02560    0.22150    0.66440    1.000
    C667     C        0.05000    0.19980    0.70090    1.000
    H491     H        0.08230    0.19890    0.70140    1.000
    C668     C        0.02470    0.18030    0.73480    1.000
    H492     H        0.04020    0.16620    0.75950    1.000
    C669     C        0.10960    0.14470    0.59290    1.000
    C670     C        0.06320    0.13310    0.58800    1.000
    H493     H        0.04000    0.15560    0.58680    1.000
    C671     C        0.05330    0.08670    0.58500    1.000
    H494     H        0.02240    0.07750    0.58290    1.000
    C672     C        0.17380    0.31970    0.64460    1.000
    C673     C        0.21370    0.31390    0.61750    1.000
    H495     H        0.21540    0.29440    0.59050    1.000
    C674     C        0.25640    0.33740    0.62770    1.000
    H496     H        0.28360    0.32990    0.61180    1.000
    C675     C        0.08080    0.31690    0.52300    1.000
    C676     C        0.05840    0.35290    0.54990    1.000
    H497     H        0.06020    0.35440    0.58210    1.000
    C677     C        0.03340    0.38570    0.52310    1.000
    H498     H        0.01620    0.40840    0.53850    1.000
    N141     N        0.03940    0.24400    0.62490    1.000
    N142     N        0.13580    0.19060    0.60080    1.000
    N143     N        0.13120    0.29750    0.64710    1.000
    N144     N        0.10220    0.27680    0.53930    1.000
    C678     C        0.12010    0.15630    0.57700    1.000
    C679     C        0.07440    0.14660    0.55770    1.000
    H499     H        0.05020    0.16800    0.55820    1.000
    C680     C        0.07030    0.10380    0.53890    1.000
    H500     H        0.04220    0.09660    0.52480    1.000
    H501     H        0.08350    0.31840    0.69750    1.000
    C681     C        0.23890    0.35030    0.61230    1.000
    H502     H        0.25700    0.35390    0.58580    1.000
    C682     C        0.10150    0.32310    0.52530    1.000
    C683     C        0.09570    0.36470    0.55010    1.000
    H503     H        0.09490    0.36520    0.58240    1.000
    C684     C        0.09130    0.40540    0.52380    1.000
    H504     H        0.08820    0.43360    0.53930    1.000
    Zn37     Zn       0.89571    0.60377    0.25197    1.000
    C685     C        0.97440    0.66440    0.22150    1.000
    C686     C        0.95000    0.70090    0.19980    1.000
    H505     H        0.91770    0.70140    0.19890    1.000
    C687     C        0.97530    0.73480    0.18030    1.000
    H506     H        0.95980    0.75950    0.16620    1.000
    C688     C        0.89040    0.59290    0.14470    1.000
    C689     C        0.93680    0.58800    0.13310    1.000
    H507     H        0.96000    0.58680    0.15560    1.000
    C690     C        0.94670    0.58500    0.08670    1.000
    H508     H        0.97760    0.58290    0.07750    1.000
    C691     C        0.82620    0.64460    0.31970    1.000
    C692     C        0.78630    0.61750    0.31390    1.000
    H509     H        0.78460    0.59050    0.29440    1.000
    C693     C        0.74360    0.62770    0.33740    1.000
    H510     H        0.71640    0.61180    0.32990    1.000
    C694     C        0.91920    0.52300    0.31690    1.000
    C695     C        0.94160    0.54990    0.35290    1.000
    H511     H        0.93980    0.58210    0.35440    1.000
    C696     C        0.96660    0.52310    0.38570    1.000
    H512     H        0.98380    0.53850    0.40840    1.000
    N145     N        0.96060    0.62490    0.24400    1.000
    N146     N        0.86420    0.60080    0.19060    1.000
    N147     N        0.86880    0.64710    0.29750    1.000
    N148     N        0.89780    0.53930    0.27680    1.000
    C697     C        0.87990    0.57700    0.15630    1.000
    C698     C        0.92560    0.55770    0.14660    1.000
    H513     H        0.94980    0.55820    0.16800    1.000
    C699     C        0.92970    0.53890    0.10380    1.000
    H514     H        0.95780    0.52480    0.09660    1.000
    H515     H        0.91650    0.69750    0.31840    1.000
    C700     C        0.76110    0.61230    0.35030    1.000
    H516     H        0.74300    0.58580    0.35390    1.000
    C701     C        0.89850    0.52530    0.32310    1.000
    C702     C        0.90430    0.55010    0.36470    1.000
    H517     H        0.90510    0.58240    0.36520    1.000
    C703     C        0.90870    0.52380    0.40540    1.000
    H518     H        0.91180    0.53930    0.43360    1.000
    Zn38     Zn       0.10429    0.39623    0.25197    1.000
    C704     C        0.02560    0.33560    0.22150    1.000
    C705     C        0.05000    0.29910    0.19980    1.000
    H519     H        0.08230    0.29860    0.19890    1.000
    C706     C        0.02470    0.26520    0.18030    1.000
    H520     H        0.04020    0.24050    0.16620    1.000
    C707     C        0.10960    0.40710    0.14470    1.000
    C708     C        0.06320    0.41200    0.13310    1.000
    H521     H        0.04000    0.41320    0.15560    1.000
    C709     C        0.05330    0.41500    0.08670    1.000
    H522     H        0.02240    0.41710    0.07750    1.000
    C710     C        0.17380    0.35540    0.31970    1.000
    C711     C        0.21370    0.38250    0.31390    1.000
    H523     H        0.21540    0.40950    0.29440    1.000
    C712     C        0.25640    0.37230    0.33740    1.000
    H524     H        0.28360    0.38820    0.32990    1.000
    C713     C        0.08080    0.47700    0.31690    1.000
    C714     C        0.05840    0.45010    0.35290    1.000
    H525     H        0.06020    0.41790    0.35440    1.000
    C715     C        0.03340    0.47690    0.38570    1.000
    H526     H        0.01620    0.46150    0.40840    1.000
    N149     N        0.03940    0.37510    0.24400    1.000
    N150     N        0.13580    0.39920    0.19060    1.000
    N151     N        0.13120    0.35290    0.29750    1.000
    N152     N        0.10220    0.46070    0.27680    1.000
    C716     C        0.12010    0.42300    0.15630    1.000
    C717     C        0.07440    0.44230    0.14660    1.000
    H527     H        0.05020    0.44180    0.16800    1.000
    C718     C        0.07030    0.46110    0.10380    1.000
    H528     H        0.04220    0.47520    0.09660    1.000
    H529     H        0.08350    0.30250    0.31840    1.000
    C719     C        0.23890    0.38770    0.35030    1.000
    H530     H        0.25700    0.41420    0.35390    1.000
    C720     C        0.10150    0.47470    0.32310    1.000
    C721     C        0.09570    0.44990    0.36470    1.000
    H531     H        0.09490    0.41760    0.36520    1.000
    C722     C        0.09130    0.47620    0.40540    1.000
    H532     H        0.08820    0.46070    0.43360    1.000
    Zn39     Zn       0.89571    0.39623    0.74803    1.000
    C723     C        0.97440    0.33560    0.77850    1.000
    C724     C        0.95000    0.29910    0.80020    1.000
    H533     H        0.91770    0.29860    0.80110    1.000
    C725     C        0.97530    0.26520    0.81970    1.000
    H534     H        0.95980    0.24050    0.83380    1.000
    C726     C        0.89040    0.40710    0.85530    1.000
    C727     C        0.93680    0.41200    0.86690    1.000
    H535     H        0.96000    0.41320    0.84440    1.000
    C728     C        0.94670    0.41500    0.91330    1.000
    H536     H        0.97760    0.41710    0.92250    1.000
    C729     C        0.82620    0.35540    0.68030    1.000
    C730     C        0.78630    0.38250    0.68610    1.000
    H537     H        0.78460    0.40950    0.70560    1.000
    C731     C        0.74360    0.37230    0.66260    1.000
    H538     H        0.71640    0.38820    0.67010    1.000
    C732     C        0.91920    0.47700    0.68310    1.000
    C733     C        0.94160    0.45010    0.64710    1.000
    H539     H        0.93980    0.41790    0.64560    1.000
    C734     C        0.96660    0.47690    0.61430    1.000
    H540     H        0.98380    0.46150    0.59160    1.000
    N153     N        0.96060    0.37510    0.75600    1.000
    N154     N        0.86420    0.39920    0.80940    1.000
    N155     N        0.86880    0.35290    0.70250    1.000
    N156     N        0.89780    0.46070    0.72320    1.000
    C735     C        0.87990    0.42300    0.84370    1.000
    C736     C        0.92560    0.44230    0.85340    1.000
    H541     H        0.94980    0.44180    0.83200    1.000
    C737     C        0.92970    0.46110    0.89620    1.000
    H542     H        0.95780    0.47520    0.90340    1.000
    H543     H        0.91650    0.30250    0.68160    1.000
    C738     C        0.76110    0.38770    0.64970    1.000
    H544     H        0.74300    0.41420    0.64610    1.000
    C739     C        0.89850    0.47470    0.67690    1.000
    C740     C        0.90430    0.44990    0.63530    1.000
    H545     H        0.90510    0.41760    0.63480    1.000
    C741     C        0.90870    0.47620    0.59460    1.000
    H546     H        0.91180    0.46070    0.56640    1.000
    Zn40     Zn       0.10429    0.60377    0.74803    1.000
    C742     C        0.02560    0.66440    0.77850    1.000
    C743     C        0.05000    0.70090    0.80020    1.000
    H547     H        0.08230    0.70140    0.80110    1.000
    C744     C        0.02470    0.73480    0.81970    1.000
    H548     H        0.04020    0.75950    0.83380    1.000
    C745     C        0.10960    0.59290    0.85530    1.000
    C746     C        0.06320    0.58800    0.86690    1.000
    H549     H        0.04000    0.58680    0.84440    1.000
    C747     C        0.05330    0.58500    0.91330    1.000
    H550     H        0.02240    0.58290    0.92250    1.000
    C748     C        0.17380    0.64460    0.68030    1.000
    C749     C        0.21370    0.61750    0.68610    1.000
    H551     H        0.21540    0.59050    0.70560    1.000
    C750     C        0.25640    0.62770    0.66260    1.000
    H552     H        0.28360    0.61180    0.67010    1.000
    C751     C        0.08080    0.52300    0.68310    1.000
    C752     C        0.05840    0.54990    0.64710    1.000
    H553     H        0.06020    0.58210    0.64560    1.000
    C753     C        0.03340    0.52310    0.61430    1.000
    H554     H        0.01620    0.53850    0.59160    1.000
    N157     N        0.03940    0.62490    0.75600    1.000
    N158     N        0.13580    0.60080    0.80940    1.000
    N159     N        0.13120    0.64710    0.70250    1.000
    N160     N        0.10220    0.53930    0.72320    1.000
    C754     C        0.12010    0.57700    0.84370    1.000
    C755     C        0.07440    0.55770    0.85340    1.000
    H555     H        0.05020    0.55820    0.83200    1.000
    C756     C        0.07030    0.53890    0.89620    1.000
    H556     H        0.04220    0.52480    0.90340    1.000
    H557     H        0.08350    0.69750    0.68160    1.000
    C757     C        0.23890    0.61230    0.64970    1.000
    H558     H        0.25700    0.58580    0.64610    1.000
    C758     C        0.10150    0.52530    0.67690    1.000
    C759     C        0.09570    0.55010    0.63530    1.000
    H559     H        0.09490    0.58240    0.63480    1.000
    C760     C        0.09130    0.52380    0.59460    1.000
    H560     H        0.08820    0.53930    0.56640    1.000
    Zn41     Zn       0.60377    0.74803    0.10429    1.000
    C761     C        0.66440    0.77850    0.02560    1.000
    C762     C        0.70090    0.80020    0.05000    1.000
    H561     H        0.70140    0.80110    0.08230    1.000
    C763     C        0.73480    0.81970    0.02470    1.000
    H562     H        0.75950    0.83380    0.04020    1.000
    C764     C        0.59290    0.85530    0.10960    1.000
    C765     C        0.58800    0.86690    0.06320    1.000
    H563     H        0.58680    0.84440    0.04000    1.000
    C766     C        0.58500    0.91330    0.05330    1.000
    H564     H        0.58290    0.92250    0.02240    1.000
    C767     C        0.64460    0.68030    0.17380    1.000
    C768     C        0.61750    0.68610    0.21370    1.000
    H565     H        0.59050    0.70560    0.21540    1.000
    C769     C        0.62770    0.66260    0.25640    1.000
    H566     H        0.61180    0.67010    0.28360    1.000
    C770     C        0.52300    0.68310    0.08080    1.000
    C771     C        0.54990    0.64710    0.05840    1.000
    H567     H        0.58210    0.64560    0.06020    1.000
    C772     C        0.52310    0.61430    0.03340    1.000
    H568     H        0.53850    0.59160    0.01620    1.000
    N161     N        0.62490    0.75600    0.03940    1.000
    N162     N        0.60080    0.80940    0.13580    1.000
    N163     N        0.64710    0.70250    0.13120    1.000
    N164     N        0.53930    0.72320    0.10220    1.000
    C773     C        0.57700    0.84370    0.12010    1.000
    C774     C        0.55770    0.85340    0.07440    1.000
    H569     H        0.55820    0.83200    0.05020    1.000
    C775     C        0.53890    0.89620    0.07030    1.000
    H570     H        0.52480    0.90340    0.04220    1.000
    H571     H        0.69750    0.68160    0.08350    1.000
    C776     C        0.61230    0.64970    0.23890    1.000
    H572     H        0.58580    0.64610    0.25700    1.000
    C777     C        0.52530    0.67690    0.10150    1.000
    C778     C        0.55010    0.63530    0.09570    1.000
    H573     H        0.58240    0.63480    0.09490    1.000
    C779     C        0.52380    0.59460    0.09130    1.000
    H574     H        0.53930    0.56640    0.08820    1.000
    Zn42     Zn       0.39623    0.74803    0.89571    1.000
    C780     C        0.33560    0.77850    0.97440    1.000
    C781     C        0.29910    0.80020    0.95000    1.000
    H575     H        0.29860    0.80110    0.91770    1.000
    C782     C        0.26520    0.81970    0.97530    1.000
    H576     H        0.24050    0.83380    0.95980    1.000
    C783     C        0.40710    0.85530    0.89040    1.000
    C784     C        0.41200    0.86690    0.93680    1.000
    H577     H        0.41320    0.84440    0.96000    1.000
    C785     C        0.41500    0.91330    0.94670    1.000
    H578     H        0.41710    0.92250    0.97760    1.000
    C786     C        0.35540    0.68030    0.82620    1.000
    C787     C        0.38250    0.68610    0.78630    1.000
    H579     H        0.40950    0.70560    0.78460    1.000
    C788     C        0.37230    0.66260    0.74360    1.000
    H580     H        0.38820    0.67010    0.71640    1.000
    C789     C        0.47700    0.68310    0.91920    1.000
    C790     C        0.45010    0.64710    0.94160    1.000
    H581     H        0.41790    0.64560    0.93980    1.000
    C791     C        0.47690    0.61430    0.96660    1.000
    H582     H        0.46150    0.59160    0.98380    1.000
    N165     N        0.37510    0.75600    0.96060    1.000
    N166     N        0.39920    0.80940    0.86420    1.000
    N167     N        0.35290    0.70250    0.86880    1.000
    N168     N        0.46070    0.72320    0.89780    1.000
    C792     C        0.42300    0.84370    0.87990    1.000
    C793     C        0.44230    0.85340    0.92560    1.000
    H583     H        0.44180    0.83200    0.94980    1.000
    C794     C        0.46110    0.89620    0.92970    1.000
    H584     H        0.47520    0.90340    0.95780    1.000
    H585     H        0.30250    0.68160    0.91650    1.000
    C795     C        0.38770    0.64970    0.76110    1.000
    H586     H        0.41420    0.64610    0.74300    1.000
    C796     C        0.47470    0.67690    0.89850    1.000
    C797     C        0.44990    0.63530    0.90430    1.000
    H587     H        0.41760    0.63480    0.90510    1.000
    C798     C        0.47620    0.59460    0.90870    1.000
    H588     H        0.46070    0.56640    0.91180    1.000
    Zn43     Zn       0.39623    0.25197    0.10429    1.000
    C799     C        0.33560    0.22150    0.02560    1.000
    C800     C        0.29910    0.19980    0.05000    1.000
    H589     H        0.29860    0.19890    0.08230    1.000
    C801     C        0.26520    0.18030    0.02470    1.000
    H590     H        0.24050    0.16620    0.04020    1.000
    C802     C        0.40710    0.14470    0.10960    1.000
    C803     C        0.41200    0.13310    0.06320    1.000
    H591     H        0.41320    0.15560    0.04000    1.000
    C804     C        0.41500    0.08670    0.05330    1.000
    H592     H        0.41710    0.07750    0.02240    1.000
    C805     C        0.35540    0.31970    0.17380    1.000
    C806     C        0.38250    0.31390    0.21370    1.000
    H593     H        0.40950    0.29440    0.21540    1.000
    C807     C        0.37230    0.33740    0.25640    1.000
    H594     H        0.38820    0.32990    0.28360    1.000
    C808     C        0.47700    0.31690    0.08080    1.000
    C809     C        0.45010    0.35290    0.05840    1.000
    H595     H        0.41790    0.35440    0.06020    1.000
    C810     C        0.47690    0.38570    0.03340    1.000
    H596     H        0.46150    0.40840    0.01620    1.000
    N169     N        0.37510    0.24400    0.03940    1.000
    N170     N        0.39920    0.19060    0.13580    1.000
    N171     N        0.35290    0.29750    0.13120    1.000
    N172     N        0.46070    0.27680    0.10220    1.000
    C811     C        0.42300    0.15630    0.12010    1.000
    C812     C        0.44230    0.14660    0.07440    1.000
    H597     H        0.44180    0.16800    0.05020    1.000
    C813     C        0.46110    0.10380    0.07030    1.000
    H598     H        0.47520    0.09660    0.04220    1.000
    H599     H        0.30250    0.31840    0.08350    1.000
    C814     C        0.38770    0.35030    0.23890    1.000
    H600     H        0.41420    0.35390    0.25700    1.000
    C815     C        0.47470    0.32310    0.10150    1.000
    C816     C        0.44990    0.36470    0.09570    1.000
    H601     H        0.41760    0.36520    0.09490    1.000
    C817     C        0.47620    0.40540    0.09130    1.000
    H602     H        0.46070    0.43360    0.08820    1.000
    Zn44     Zn       0.60377    0.25197    0.89571    1.000
    C818     C        0.66440    0.22150    0.97440    1.000
    C819     C        0.70090    0.19980    0.95000    1.000
    H603     H        0.70140    0.19890    0.91770    1.000
    C820     C        0.73480    0.18030    0.97530    1.000
    H604     H        0.75950    0.16620    0.95980    1.000
    C821     C        0.59290    0.14470    0.89040    1.000
    C822     C        0.58800    0.13310    0.93680    1.000
    H605     H        0.58680    0.15560    0.96000    1.000
    C823     C        0.58500    0.08670    0.94670    1.000
    H606     H        0.58290    0.07750    0.97760    1.000
    C824     C        0.64460    0.31970    0.82620    1.000
    C825     C        0.61750    0.31390    0.78630    1.000
    H607     H        0.59050    0.29440    0.78460    1.000
    C826     C        0.62770    0.33740    0.74360    1.000
    H608     H        0.61180    0.32990    0.71640    1.000
    C827     C        0.52300    0.31690    0.91920    1.000
    C828     C        0.54990    0.35290    0.94160    1.000
    H609     H        0.58210    0.35440    0.93980    1.000
    C829     C        0.52310    0.38570    0.96660    1.000
    H610     H        0.53850    0.40840    0.98380    1.000
    N173     N        0.62490    0.24400    0.96060    1.000
    N174     N        0.60080    0.19060    0.86420    1.000
    N175     N        0.64710    0.29750    0.86880    1.000
    N176     N        0.53930    0.27680    0.89780    1.000
    C830     C        0.57700    0.15630    0.87990    1.000
    C831     C        0.55770    0.14660    0.92560    1.000
    H611     H        0.55820    0.16800    0.94980    1.000
    C832     C        0.53890    0.10380    0.92970    1.000
    H612     H        0.52480    0.09660    0.95780    1.000
    H613     H        0.69750    0.31840    0.91650    1.000
    C833     C        0.61230    0.35030    0.76110    1.000
    H614     H        0.58580    0.35390    0.74300    1.000
    C834     C        0.52530    0.32310    0.89850    1.000
    C835     C        0.55010    0.36470    0.90430    1.000
    H615     H        0.58240    0.36520    0.90510    1.000
    C836     C        0.52380    0.40540    0.90870    1.000
    H616     H        0.53930    0.43360    0.91180    1.000
    Zn45     Zn       0.74803    0.89571    0.39623    1.000
    C837     C        0.77850    0.97440    0.33560    1.000
    C838     C        0.80020    0.95000    0.29910    1.000
    H617     H        0.80110    0.91770    0.29860    1.000
    C839     C        0.81970    0.97530    0.26520    1.000
    H618     H        0.83380    0.95980    0.24050    1.000
    C840     C        0.85530    0.89040    0.40710    1.000
    C841     C        0.86690    0.93680    0.41200    1.000
    H619     H        0.84440    0.96000    0.41320    1.000
    C842     C        0.91330    0.94670    0.41500    1.000
    H620     H        0.92250    0.97760    0.41710    1.000
    C843     C        0.68030    0.82620    0.35540    1.000
    C844     C        0.68610    0.78630    0.38250    1.000
    H621     H        0.70560    0.78460    0.40950    1.000
    C845     C        0.66260    0.74360    0.37230    1.000
    H622     H        0.67010    0.71640    0.38820    1.000
    C846     C        0.68310    0.91920    0.47700    1.000
    C847     C        0.64710    0.94160    0.45010    1.000
    H623     H        0.64560    0.93980    0.41790    1.000
    C848     C        0.61430    0.96660    0.47690    1.000
    H624     H        0.59160    0.98380    0.46150    1.000
    N177     N        0.75600    0.96060    0.37510    1.000
    N178     N        0.80940    0.86420    0.39920    1.000
    N179     N        0.70250    0.86880    0.35290    1.000
    N180     N        0.72320    0.89780    0.46070    1.000
    C849     C        0.84370    0.87990    0.42300    1.000
    C850     C        0.85340    0.92560    0.44230    1.000
    H625     H        0.83200    0.94980    0.44180    1.000
    C851     C        0.89620    0.92970    0.46110    1.000
    H626     H        0.90340    0.95780    0.47520    1.000
    H627     H        0.68160    0.91650    0.30250    1.000
    C852     C        0.64970    0.76110    0.38770    1.000
    H628     H        0.64610    0.74300    0.41420    1.000
    C853     C        0.67690    0.89850    0.47470    1.000
    C854     C        0.63530    0.90430    0.44990    1.000
    H629     H        0.63480    0.90510    0.41760    1.000
    C855     C        0.59460    0.90870    0.47620    1.000
    H630     H        0.56640    0.91180    0.46070    1.000
    Zn46     Zn       0.74803    0.10429    0.60377    1.000
    C856     C        0.77850    0.02560    0.66440    1.000
    C857     C        0.80020    0.05000    0.70090    1.000
    H631     H        0.80110    0.08230    0.70140    1.000
    C858     C        0.81970    0.02470    0.73480    1.000
    H632     H        0.83380    0.04020    0.75950    1.000
    C859     C        0.85530    0.10960    0.59290    1.000
    C860     C        0.86690    0.06320    0.58800    1.000
    H633     H        0.84440    0.04000    0.58680    1.000
    C861     C        0.91330    0.05330    0.58500    1.000
    H634     H        0.92250    0.02240    0.58290    1.000
    C862     C        0.68030    0.17380    0.64460    1.000
    C863     C        0.68610    0.21370    0.61750    1.000
    H635     H        0.70560    0.21540    0.59050    1.000
    C864     C        0.66260    0.25640    0.62770    1.000
    H636     H        0.67010    0.28360    0.61180    1.000
    C865     C        0.68310    0.08080    0.52300    1.000
    C866     C        0.64710    0.05840    0.54990    1.000
    H637     H        0.64560    0.06020    0.58210    1.000
    C867     C        0.61430    0.03340    0.52310    1.000
    H638     H        0.59160    0.01620    0.53850    1.000
    N181     N        0.75600    0.03940    0.62490    1.000
    N182     N        0.80940    0.13580    0.60080    1.000
    N183     N        0.70250    0.13120    0.64710    1.000
    N184     N        0.72320    0.10220    0.53930    1.000
    C868     C        0.84370    0.12010    0.57700    1.000
    C869     C        0.85340    0.07440    0.55770    1.000
    H639     H        0.83200    0.05020    0.55820    1.000
    C870     C        0.89620    0.07030    0.53890    1.000
    H640     H        0.90340    0.04220    0.52480    1.000
    H641     H        0.68160    0.08350    0.69750    1.000
    C871     C        0.64970    0.23890    0.61230    1.000
    H642     H        0.64610    0.25700    0.58580    1.000
    C872     C        0.67690    0.10150    0.52530    1.000
    C873     C        0.63530    0.09570    0.55010    1.000
    H643     H        0.63480    0.09490    0.58240    1.000
    C874     C        0.59460    0.09130    0.52380    1.000
    H644     H        0.56640    0.08820    0.53930    1.000
    Zn47     Zn       0.25197    0.89571    0.60377    1.000
    C875     C        0.22150    0.97440    0.66440    1.000
    C876     C        0.19980    0.95000    0.70090    1.000
    H645     H        0.19890    0.91770    0.70140    1.000
    C877     C        0.18030    0.97530    0.73480    1.000
    H646     H        0.16620    0.95980    0.75950    1.000
    C878     C        0.14470    0.89040    0.59290    1.000
    C879     C        0.13310    0.93680    0.58800    1.000
    H647     H        0.15560    0.96000    0.58680    1.000
    C880     C        0.08670    0.94670    0.58500    1.000
    H648     H        0.07750    0.97760    0.58290    1.000
    C881     C        0.31970    0.82620    0.64460    1.000
    C882     C        0.31390    0.78630    0.61750    1.000
    H649     H        0.29440    0.78460    0.59050    1.000
    C883     C        0.33740    0.74360    0.62770    1.000
    H650     H        0.32990    0.71640    0.61180    1.000
    C884     C        0.31690    0.91920    0.52300    1.000
    C885     C        0.35290    0.94160    0.54990    1.000
    H651     H        0.35440    0.93980    0.58210    1.000
    C886     C        0.38570    0.96660    0.52310    1.000
    H652     H        0.40840    0.98380    0.53850    1.000
    N185     N        0.24400    0.96060    0.62490    1.000
    N186     N        0.19060    0.86420    0.60080    1.000
    N187     N        0.29750    0.86880    0.64710    1.000
    N188     N        0.27680    0.89780    0.53930    1.000
    C887     C        0.15630    0.87990    0.57700    1.000
    C888     C        0.14660    0.92560    0.55770    1.000
    H653     H        0.16800    0.94980    0.55820    1.000
    C889     C        0.10380    0.92970    0.53890    1.000
    H654     H        0.09660    0.95780    0.52480    1.000
    H655     H        0.31840    0.91650    0.69750    1.000
    C890     C        0.35030    0.76110    0.61230    1.000
    H656     H        0.35390    0.74300    0.58580    1.000
    C891     C        0.32310    0.89850    0.52530    1.000
    C892     C        0.36470    0.90430    0.55010    1.000
    H657     H        0.36520    0.90510    0.58240    1.000
    C893     C        0.40540    0.90870    0.52380    1.000
    H658     H        0.43360    0.91180    0.53930    1.000
    Zn48     Zn       0.25197    0.10429    0.39623    1.000
    C894     C        0.22150    0.02560    0.33560    1.000
    C895     C        0.19980    0.05000    0.29910    1.000
    H659     H        0.19890    0.08230    0.29860    1.000
    C896     C        0.18030    0.02470    0.26520    1.000
    H660     H        0.16620    0.04020    0.24050    1.000
    C897     C        0.14470    0.10960    0.40710    1.000
    C898     C        0.13310    0.06320    0.41200    1.000
    H661     H        0.15560    0.04000    0.41320    1.000
    C899     C        0.08670    0.05330    0.41500    1.000
    H662     H        0.07750    0.02240    0.41710    1.000
    C900     C        0.31970    0.17380    0.35540    1.000
    C901     C        0.31390    0.21370    0.38250    1.000
    H663     H        0.29440    0.21540    0.40950    1.000
    C902     C        0.33740    0.25640    0.37230    1.000
    H664     H        0.32990    0.28360    0.38820    1.000
    C903     C        0.31690    0.08080    0.47700    1.000
    C904     C        0.35290    0.05840    0.45010    1.000
    H665     H        0.35440    0.06020    0.41790    1.000
    C905     C        0.38570    0.03340    0.47690    1.000
    H666     H        0.40840    0.01620    0.46150    1.000
    N189     N        0.24400    0.03940    0.37510    1.000
    N190     N        0.19060    0.13580    0.39920    1.000
    N191     N        0.29750    0.13120    0.35290    1.000
    N192     N        0.27680    0.10220    0.46070    1.000
    C906     C        0.15630    0.12010    0.42300    1.000
    C907     C        0.14660    0.07440    0.44230    1.000
    H667     H        0.16800    0.05020    0.44180    1.000
    C908     C        0.10380    0.07030    0.46110    1.000
    H668     H        0.09660    0.04220    0.47520    1.000
    H669     H        0.31840    0.08350    0.30250    1.000
    C909     C        0.35030    0.23890    0.38770    1.000
    H670     H        0.35390    0.25700    0.41420    1.000
    C910     C        0.32310    0.10150    0.47470    1.000
    C911     C        0.36470    0.09570    0.44990    1.000
    H671     H        0.36520    0.09490    0.41760    1.000
    C912     C        0.40540    0.09130    0.47620    1.000
    H672     H        0.43360    0.08820    0.46070    1.000
    C913     C        0.39500    0.00000    0.25600    1.000
    H673     H        0.42270    0.00000    0.27280    1.000
    C914     C        0.60500    0.00000    0.25600    1.000
    H674     H        0.57730    0.00000    0.27280    1.000
    C915     C        0.60500    0.00000    0.74400    1.000
    H675     H        0.57730    0.00000    0.72720    1.000
    C916     C        0.39500    0.00000    0.74400    1.000
    H676     H        0.42270    0.00000    0.72720    1.000
    C917     C        0.25600    0.39500    0.00000    1.000
    H677     H        0.27280    0.42270    0.00000    1.000
    C918     C        0.25600    0.60500    0.00000    1.000
    H678     H        0.27280    0.57730    0.00000    1.000
    C919     C        0.74400    0.60500    0.00000    1.000
    H679     H        0.72720    0.57730    0.00000    1.000
    C920     C        0.74400    0.39500    0.00000    1.000
    H680     H        0.72720    0.42270    0.00000    1.000
    C921     C        0.00000    0.25600    0.39500    1.000
    H681     H        0.00000    0.27280    0.42270    1.000
    C922     C        0.00000    0.25600    0.60500    1.000
    H682     H        0.00000    0.27280    0.57730    1.000
    C923     C        0.00000    0.74400    0.60500    1.000
    H683     H        0.00000    0.72720    0.57730    1.000
    C924     C        0.00000    0.74400    0.39500    1.000
    H684     H        0.00000    0.72720    0.42270    1.000
    C925     C        0.00000    0.39500    0.74400    1.000
    H685     H        0.00000    0.42270    0.72720    1.000
    C926     C        0.00000    0.60500    0.74400    1.000
    H686     H        0.00000    0.57730    0.72720    1.000
    C927     C        0.00000    0.60500    0.25600    1.000
    H687     H        0.00000    0.57730    0.27280    1.000
    C928     C        0.00000    0.39500    0.25600    1.000
    H688     H        0.00000    0.42270    0.27280    1.000
    C929     C        0.39500    0.25600    0.00000    1.000
    H689     H        0.42270    0.27280    0.00000    1.000
    C930     C        0.60500    0.25600    0.00000    1.000
    H690     H        0.57730    0.27280    0.00000    1.000
    C931     C        0.60500    0.74400    0.00000    1.000
    H691     H        0.57730    0.72720    0.00000    1.000
    C932     C        0.39500    0.74400    0.00000    1.000
    H692     H        0.42270    0.72720    0.00000    1.000
    C933     C        0.25600    0.00000    0.60500    1.000
    H693     H        0.27280    0.00000    0.57730    1.000
    C934     C        0.25600    0.00000    0.39500    1.000
    H694     H        0.27280    0.00000    0.42270    1.000
    C935     C        0.74400    0.00000    0.39500    1.000
    H695     H        0.72720    0.00000    0.42270    1.000
    C936     C        0.74400    0.00000    0.60500    1.000
    H696     H        0.72720    0.00000    0.57730    1.000
    C937     C        0.39080    0.17930    0.17930    1.000
    H697     H        0.37960    0.20070    0.20070    1.000
    C938     C        0.60920    0.82070    0.17930    1.000
    H698     H        0.62040    0.79930    0.20070    1.000
    C939     C        0.60920    0.17930    0.82070    1.000
    H699     H        0.62040    0.20070    0.79930    1.000
    C940     C        0.39080    0.82070    0.82070    1.000
    H700     H        0.37960    0.79930    0.79930    1.000
    C941     C        0.17930    0.39080    0.17930    1.000
    H701     H        0.20070    0.37960    0.20070    1.000
    C942     C        0.17930    0.60920    0.82070    1.000
    H702     H        0.20070    0.62040    0.79930    1.000
    C943     C        0.82070    0.60920    0.17930    1.000
    H703     H        0.79930    0.62040    0.20070    1.000
    C944     C        0.82070    0.39080    0.82070    1.000
    H704     H        0.79930    0.37960    0.79930    1.000
    C945     C        0.17930    0.17930    0.39080    1.000
    H705     H        0.20070    0.20070    0.37960    1.000
    C946     C        0.82070    0.17930    0.60920    1.000
    H706     H        0.79930    0.20070    0.62040    1.000
    C947     C        0.17930    0.82070    0.60920    1.000
    H707     H        0.20070    0.79930    0.62040    1.000
    C948     C        0.82070    0.82070    0.39080    1.000
    H708     H        0.79930    0.79930    0.37960    1.000
    C949     C        0.17930    0.39080    0.82070    1.000
    H709     H        0.20070    0.37960    0.79930    1.000
    C950     C        0.82070    0.60920    0.82070    1.000
    H710     H        0.79930    0.62040    0.79930    1.000
    C951     C        0.17930    0.60920    0.17930    1.000
    H711     H        0.20070    0.62040    0.20070    1.000
    C952     C        0.82070    0.39080    0.17930    1.000
    H712     H        0.79930    0.37960    0.20070    1.000
    C953     C        0.39080    0.17930    0.82070    1.000
    H713     H        0.37960    0.20070    0.79930    1.000
    C954     C        0.60920    0.17930    0.17930    1.000
    H714     H        0.62040    0.20070    0.20070    1.000
    C955     C        0.60920    0.82070    0.82070    1.000
    H715     H        0.62040    0.79930    0.79930    1.000
    C956     C        0.39080    0.82070    0.17930    1.000
    H716     H        0.37960    0.79930    0.20070    1.000
    C957     C        0.17930    0.17930    0.60920    1.000
    H717     H        0.20070    0.20070    0.62040    1.000
    C958     C        0.17930    0.82070    0.39080    1.000
    H718     H        0.20070    0.79930    0.37960    1.000
    C959     C        0.82070    0.17930    0.39080    1.000
    H719     H        0.79930    0.20070    0.37960    1.000
    C960     C        0.82070    0.82070    0.60920    1.000
    H720     H        0.79930    0.79930    0.62040    1.000
    C961     C        0.31890    0.11130    0.31890    1.000
    C962     C        0.68110    0.88870    0.31890    1.000
    C963     C        0.68110    0.11130    0.68110    1.000
    C964     C        0.31890    0.88870    0.68110    1.000
    C965     C        0.31890    0.31890    0.11130    1.000
    C966     C        0.31890    0.68110    0.88870    1.000
    C967     C        0.68110    0.68110    0.11130    1.000
    C968     C        0.68110    0.31890    0.88870    1.000
    C969     C        0.11130    0.31890    0.31890    1.000
    C970     C        0.88870    0.31890    0.68110    1.000
    C971     C        0.11130    0.68110    0.68110    1.000
    C972     C        0.88870    0.68110    0.31890    1.000
    C973     C        0.11130    0.31890    0.68110    1.000
    C974     C        0.88870    0.68110    0.68110    1.000
    C975     C        0.11130    0.68110    0.31890    1.000
    C976     C        0.88870    0.31890    0.31890    1.000
    C977     C        0.31890    0.31890    0.88870    1.000
    C978     C        0.68110    0.31890    0.11130    1.000
    C979     C        0.68110    0.68110    0.88870    1.000
    C980     C        0.31890    0.68110    0.11130    1.000
    C981     C        0.31890    0.11130    0.68110    1.000
    C982     C        0.31890    0.88870    0.31890    1.000
    C983     C        0.68110    0.11130    0.31890    1.000
    C984     C        0.68110    0.88870    0.68110    1.000
    C985     C        0.50000    0.11060    0.25330    1.000
    H721     H        0.50000    0.12150    0.22280    1.000
    C986     C        0.50000    0.88940    0.25330    1.000
    H722     H        0.50000    0.87850    0.22280    1.000
    C987     C        0.50000    0.11060    0.74670    1.000
    H723     H        0.50000    0.12150    0.77720    1.000
    C988     C        0.50000    0.88940    0.74670    1.000
    H724     H        0.50000    0.87850    0.77720    1.000
    C989     C        0.25330    0.50000    0.11060    1.000
    H725     H        0.22280    0.50000    0.12150    1.000
    C990     C        0.25330    0.50000    0.88940    1.000
    H726     H        0.22280    0.50000    0.87850    1.000
    C991     C        0.74670    0.50000    0.11060    1.000
    H727     H        0.77720    0.50000    0.12150    1.000
    C992     C        0.74670    0.50000    0.88940    1.000
    H728     H        0.77720    0.50000    0.87850    1.000
    C993     C        0.11060    0.25330    0.50000    1.000
    H729     H        0.12150    0.22280    0.50000    1.000
    C994     C        0.88940    0.25330    0.50000    1.000
    H730     H        0.87850    0.22280    0.50000    1.000
    C995     C        0.11060    0.74670    0.50000    1.000
    H731     H        0.12150    0.77720    0.50000    1.000
    C996     C        0.88940    0.74670    0.50000    1.000
    H732     H        0.87850    0.77720    0.50000    1.000
    C997     C        0.11060    0.50000    0.74670    1.000
    H733     H        0.12150    0.50000    0.77720    1.000
    C998     C        0.88940    0.50000    0.74670    1.000
    H734     H        0.87850    0.50000    0.77720    1.000
    C999     C        0.11060    0.50000    0.25330    1.000
    H735     H        0.12150    0.50000    0.22280    1.000
    C1000    C        0.88940    0.50000    0.25330    1.000
    H736     H        0.87850    0.50000    0.22280    1.000
    C1001    C        0.50000    0.25330    0.88940    1.000
    H737     H        0.50000    0.22280    0.87850    1.000
    C1002    C        0.50000    0.25330    0.11060    1.000
    H738     H        0.50000    0.22280    0.12150    1.000
    C1003    C        0.50000    0.74670    0.88940    1.000
    H739     H        0.50000    0.77720    0.87850    1.000
    C1004    C        0.50000    0.74670    0.11060    1.000
    H740     H        0.50000    0.77720    0.12150    1.000
    C1005    C        0.25330    0.11060    0.50000    1.000
    H741     H        0.22280    0.12150    0.50000    1.000
    C1006    C        0.25330    0.88940    0.50000    1.000
    H742     H        0.22280    0.87850    0.50000    1.000
    C1007    C        0.74670    0.11060    0.50000    1.000
    H743     H        0.77720    0.12150    0.50000    1.000
    C1008    C        0.74670    0.88940    0.50000    1.000
    H744     H        0.77720    0.87850    0.50000    1.000
