# CIF file generated by openbabel 3.1.0, see https://openbabel.org
data_I
_chemical_name_common 'SOCKOM_clean'
_cell_length_a 10.1884
_cell_length_b 10.1884
_cell_length_c 11.7332
_cell_angle_alpha 85.062
_cell_angle_beta 85.062
_cell_angle_gamma 70.5414
_space_group_name_H-M_alt 'P 1'
_space_group_name_Hall 'P 1'
loop_
    _symmetry_equiv_pos_as_xyz
    x,y,z
loop_
    _atom_site_label
    _atom_site_type_symbol
    _atom_site_fract_x
    _atom_site_fract_y
    _atom_site_fract_z
    _atom_site_occupancy
    Cd1      Cd       0.97825    0.02175    0.00000    1.000
    Cd2      Cd       0.78608    0.21392    0.50000    1.000
    H1       H        0.36070    0.61010    0.66990    1.000
    H2       H        0.13680    0.16540    0.35050    1.000
    H3       H        0.38320    0.07780    0.72170    1.000
    H4       H        0.68350    0.05670    0.14170    1.000
    H5       H        0.93960    0.93600    0.37220    1.000
    H6       H        0.30380    0.16040    0.47450    1.000
    H7       H        0.06400    0.06040    0.62780    1.000
    H8       H        0.92220    0.61680    0.27830    1.000
    H9       H        0.01850    0.73250    0.13910    1.000
    H10      H        0.26410    0.86990    0.63530    1.000
    H11      H        0.94330    0.31650    0.85830    1.000
    H12      H        0.54170    0.41070    0.66350    1.000
    H13      H        0.68960    0.71900    0.34050    1.000
    H14      H        0.83460    0.86320    0.64950    1.000
    H15      H        0.58930    0.45830    0.33650    1.000
    H16      H        0.28100    0.31040    0.65950    1.000
    H17      H        0.26750    0.98150    0.86090    1.000
    H18      H        0.38990    0.63930    0.33010    1.000
    H19      H        0.83960    0.69620    0.52550    1.000
    H20      H        0.43240    0.91340    0.14910    1.000
    H21      H        0.13010    0.73590    0.36470    1.000
    H22      H        0.08660    0.56760    0.85090    1.000
    C1       C        0.42200    0.59760    0.40060    1.000
    C2       C        0.57490    0.06250    0.45650    1.000
    C3       C        0.02820    0.48940    0.71750    1.000
    C4       C        0.96810    0.84170    0.83960    1.000
    C5       C        0.03450    0.59330    0.78650    1.000
    C6       C        0.29490    0.12950    0.75080    1.000
    C7       C        0.15830    0.03190    0.16040    1.000
    C8       C        0.92800    0.77640    0.16850    1.000
    C9       C        0.51390    0.46130    0.59480    1.000
    C10      C        0.96420    0.73300    0.76000    1.000
    C11      C        0.40670    0.96550    0.21350    1.000
    C12      C        0.88590    0.66930    0.59300    1.000
    C13      C        0.72990    0.96570    0.16840    1.000
    C14      C        0.20040    0.87900    0.58050    1.000
    C15      C        0.95330    0.52850    0.62030    1.000
    C16      C        0.22290    0.77710    0.50000    1.000
    C17      C        0.40240    0.57800    0.59940    1.000
    C18      C        0.35040    0.64960    0.50000    1.000
    C19      C        0.26700    0.03580    0.24000    1.000
    C20      C        0.22970    0.11330    0.33460    1.000
    C21      C        0.47150    0.04670    0.37970    1.000
    C22      C        0.73260    0.76700    0.28730    1.000
    C23      C        0.33070    0.11410    0.40700    1.000
    C24      C        0.12100    0.79960    0.41950    1.000
    C25      C        0.00620    0.92100    0.42560    1.000
    C26      C        0.65910    0.90030    0.24620    1.000
    C27      C        0.87050    0.70510    0.24920    1.000
    C28      C        0.07900    0.99380    0.57440    1.000
    C29      C        0.88670    0.77030    0.66540    1.000
    C30      C        0.93750    0.42510    0.54350    1.000
    C31      C        0.22360    0.07200    0.83150    1.000
    C32      C        0.09970    0.34090    0.75380    1.000
    C33      C        0.53870    0.48610    0.40520    1.000
    C34      C        0.51060    0.97180    0.28250    1.000
    C35      C        0.23300    0.26740    0.71270    1.000
    C36      C        0.03430    0.27010    0.83160    1.000
    N1       N        0.09490    0.13790    0.87060    1.000
    N2       N        0.86210    0.90510    0.12940    1.000
    N3       N        0.58640    0.41360    0.50000    1.000
    N4       N        0.98420    0.01580    0.50000    1.000
    O1       O        0.96020    0.44500    0.43880    1.000
    O2       O        0.19015    0.93755    0.09320    1.000
    O3       O        0.67164    0.10184    0.41020    1.000
    O4       O        0.55500    0.03980    0.56120    1.000
    O5       O        0.04010    0.12310    0.16570    1.000
    O6       O        0.87690    0.95990    0.83430    1.000
    O7       O        0.06245    0.80985    0.90680    1.000
    O8       O        0.89816    0.32836    0.58980    1.000
