# CIF file generated by openbabel 3.1.0, see https://openbabel.org
data_I
_chemical_name_common 'image0'
_cell_length_a 16.3351
_cell_length_b 9.275
_cell_length_c 17.2416
_cell_angle_alpha 90
_cell_angle_beta 117.987
_cell_angle_gamma 90
_space_group_name_H-M_alt 'P 1'
_space_group_name_Hall 'P 1'
loop_
    _symmetry_equiv_pos_as_xyz
    x,y,z
loop_
    _atom_site_label
    _atom_site_type_symbol
    _atom_site_fract_x
    _atom_site_fract_y
    _atom_site_fract_z
    _atom_site_occupancy
    Zn1      Zn       0.13500    0.12230    0.02328    1.000
    P1       P        0.14325    0.37332    0.90085    1.000
    P2       P        0.02012    0.91852    0.63382    1.000
    O1       O        0.14208    0.31937    0.98410    1.000
    O2       O        0.23500    0.43628    0.91834    1.000
    O3       O        0.10890    0.25988    0.82990    1.000
    O4       O        0.06550    0.02466    0.70920    1.000
    O5       O        0.08910    0.85970    0.60697    1.000
    O6       O        0.93101    0.97642    0.56141    1.000
    H1       H        0.08620    0.48639    0.87413    1.000
    H2       H        0.99178    0.81108    0.66301    1.000
    Zn2      Zn       0.63500    0.62230    0.02328    1.000
    P3       P        0.64325    0.87332    0.90085    1.000
    P4       P        0.52012    0.41852    0.63382    1.000
    O7       O        0.64208    0.81937    0.98410    1.000
    O8       O        0.73500    0.93628    0.91834    1.000
    O9       O        0.60890    0.75988    0.82990    1.000
    O10      O        0.56550    0.52466    0.70920    1.000
    O11      O        0.58910    0.35970    0.60697    1.000
    O12      O        0.43101    0.47642    0.56141    1.000
    H3       H        0.58620    0.98639    0.87413    1.000
    H4       H        0.49178    0.31108    0.66301    1.000
    Zn3      Zn       0.86500    0.12230    0.47672    1.000
    P5       P        0.85675    0.37332    0.59915    1.000
    P6       P        0.97988    0.91852    0.86618    1.000
    O13      O        0.85792    0.31937    0.51590    1.000
    O14      O        0.76500    0.43628    0.58166    1.000
    O15      O        0.89110    0.25988    0.67010    1.000
    O16      O        0.93450    0.02466    0.79080    1.000
    O17      O        0.91090    0.85970    0.89303    1.000
    O18      O        0.06899    0.97642    0.93859    1.000
    H5       H        0.91380    0.48639    0.62587    1.000
    H6       H        0.00822    0.81108    0.83699    1.000
    Zn4      Zn       0.36500    0.62230    0.47672    1.000
    P7       P        0.35675    0.87332    0.59915    1.000
    P8       P        0.47988    0.41852    0.86618    1.000
    O19      O        0.35792    0.81937    0.51590    1.000
    O20      O        0.26500    0.93628    0.58166    1.000
    O21      O        0.39110    0.75988    0.67010    1.000
    O22      O        0.43450    0.52466    0.79080    1.000
    O23      O        0.41090    0.35970    0.89303    1.000
    O24      O        0.56899    0.47642    0.93859    1.000
    H7       H        0.41380    0.98639    0.62587    1.000
    H8       H        0.50822    0.31108    0.83699    1.000
    Zn5      Zn       0.86500    0.87770    0.97672    1.000
    P9       P        0.85675    0.62668    0.09915    1.000
    P10      P        0.97988    0.08148    0.36618    1.000
    O25      O        0.85792    0.68063    0.01590    1.000
    O26      O        0.76500    0.56372    0.08166    1.000
    O27      O        0.89110    0.74012    0.17010    1.000
    O28      O        0.93450    0.97534    0.29080    1.000
    O29      O        0.91090    0.14030    0.39303    1.000
    O30      O        0.06899    0.02358    0.43859    1.000
    H9       H        0.91380    0.51361    0.12587    1.000
    H10      H        0.00822    0.18892    0.33699    1.000
    Zn6      Zn       0.36500    0.37770    0.97672    1.000
    P11      P        0.35675    0.12668    0.09915    1.000
    P12      P        0.47988    0.58148    0.36618    1.000
    O31      O        0.35792    0.18063    0.01590    1.000
    O32      O        0.26500    0.06372    0.08166    1.000
    O33      O        0.39110    0.24012    0.17010    1.000
    O34      O        0.43450    0.47534    0.29080    1.000
    O35      O        0.41090    0.64030    0.39303    1.000
    O36      O        0.56899    0.52358    0.43859    1.000
    H11      H        0.41380    0.01361    0.12587    1.000
    H12      H        0.50822    0.68892    0.33699    1.000
    Zn7      Zn       0.13500    0.87770    0.52328    1.000
    P13      P        0.14325    0.62668    0.40085    1.000
    P14      P        0.02012    0.08148    0.13382    1.000
    O37      O        0.14208    0.68063    0.48410    1.000
    O38      O        0.23500    0.56372    0.41834    1.000
    O39      O        0.10890    0.74012    0.32990    1.000
    O40      O        0.06550    0.97534    0.20920    1.000
    O41      O        0.08910    0.14030    0.10697    1.000
    O42      O        0.93101    0.02358    0.06141    1.000
    H13      H        0.08620    0.51361    0.37413    1.000
    H14      H        0.99178    0.18892    0.16301    1.000
    Zn8      Zn       0.63500    0.37770    0.52328    1.000
    P15      P        0.64325    0.12668    0.40085    1.000
    P16      P        0.52012    0.58148    0.13382    1.000
    O43      O        0.64208    0.18063    0.48410    1.000
    O44      O        0.73500    0.06372    0.41834    1.000
    O45      O        0.60890    0.24012    0.32990    1.000
    O46      O        0.56550    0.47534    0.20920    1.000
    O47      O        0.58910    0.64030    0.10697    1.000
    O48      O        0.43101    0.52358    0.06141    1.000
    H15      H        0.58620    0.01361    0.37413    1.000
    H16      H        0.49178    0.68892    0.16301    1.000
    Zn9      Zn       0.00000    0.15385    0.75000    1.000
    Zn10     Zn       0.50000    0.65385    0.75000    1.000
    Zn11     Zn       0.00000    0.84615    0.25000    1.000
    Zn12     Zn       0.50000    0.34615    0.25000    1.000
