# CIF file generated by openbabel 3.1.0, see https://openbabel.org
data_I
_chemical_name_common 'JENKET_clean'
_cell_length_a 41.041
_cell_length_b 10.1287
_cell_length_c 40.3822
_cell_angle_alpha 90
_cell_angle_beta 90
_cell_angle_gamma 90
_space_group_name_H-M_alt 'P 1'
_space_group_name_Hall 'P 1'
loop_
    _symmetry_equiv_pos_as_xyz
    x,y,z
loop_
    _atom_site_label
    _atom_site_type_symbol
    _atom_site_fract_x
    _atom_site_fract_y
    _atom_site_fract_z
    _atom_site_occupancy
    Zn1      Zn       0.05930    0.07230    0.79331    1.000
    Zn2      Zn       0.39354    0.29619    0.29006    1.000
    Zn3      Zn       0.46452    0.23607    0.26700    1.000
    Zn4      Zn       0.93310    0.43552    0.33467    1.000
    H5       H        0.32090    0.65480    0.89930    1.000
    H6       H        0.30370    0.45090    0.98260    1.000
    H7       H        0.37670    0.71170    0.97960    1.000
    H8       H        0.39940    0.57350    0.01660    1.000
    H9       H        0.41470    0.51720    0.06930    1.000
    H10      H        0.32140    0.43310    0.09070    1.000
    H11      H        0.30710    0.49280    0.03760    1.000
    H12      H        0.42840    0.39580    0.11110    1.000
    H13      H        0.44410    0.33690    0.16400    1.000
    H14      H        0.35150    0.38060    0.19390    1.000
    H15      H        0.33640    0.44520    0.14150    1.000
    H16      H        0.25050    0.46040    0.96050    1.000
    H17      H        0.20560    0.36280    0.93240    1.000
    H18      H        0.26050    0.35830    0.84880    1.000
    H19      H        0.30170    0.46670    0.87690    1.000
    H20      H        0.23040    0.16520    0.83920    1.000
    H21      H        0.18870    0.05530    0.81230    1.000
    H22      H        0.12270    0.24790    0.86740    1.000
    H23      H        0.16370    0.35700    0.89540    1.000
    H24      H        0.38400    0.91500    0.95660    1.000
    H25      H        0.36520    0.72190    0.87170    1.000
    H26      H        0.11050    0.69560    0.51230    1.000
    H27      H        0.18600    0.44160    0.51640    1.000
    H28      H        0.17540    0.68070    0.43790    1.000
    H29      H        0.08480    0.83570    0.48670    1.000
    H30      H        0.05410    0.97940    0.45720    1.000
    H31      H        0.11310    0.93860    0.38100    1.000
    H32      H        0.14510    0.79230    0.41010    1.000
    H33      H        0.04490    0.18570    0.43350    1.000
    H34      H        0.01080    0.32200    0.40380    1.000
    H35      H        0.03190    0.12370    0.32030    1.000
    H36      H        0.06710    0.98230    0.34990    1.000
    H37      H        0.23030    0.66860    0.43740    1.000
    H38      H        0.27910    0.58900    0.41730    1.000
    H39      H        0.25690    0.22860    0.45200    1.000
    H40      H        0.21150    0.30950    0.47610    1.000
    H41      H        0.12200    0.69060    0.56950    1.000
    H42      H        0.10300    0.62350    0.62070    1.000
    H43      H        0.13060    0.25460    0.59920    1.000
    H44      H        0.14610    0.31830    0.54790    1.000
    H45      H        0.10490    0.56500    0.67090    1.000
    H46      H        0.08840    0.50390    0.72300    1.000
    H47      H        0.08380    0.13050    0.69230    1.000
    H48      H        0.09700    0.19900    0.63970    1.000
    H49      H        0.28740    0.15810    0.40850    1.000
    H50      H        0.33390    0.07590    0.38510    1.000
    H51      H        0.37210    0.44150    0.38590    1.000
    H52      H        0.32810    0.51780    0.41240    1.000
    H53      H        0.49000    0.18610    0.19820    1.000
    H54      H        0.50840    0.01230    0.16540    1.000
    H55      H        0.52830    0.81980    0.19280    1.000
    H56      H        0.51290    0.78160    0.24560    1.000
    H57      H        0.48960    0.95170    0.27610    1.000
    H58      H        0.41660    0.06110    0.92860    1.000
    H59      H        0.39860    0.86640    0.84350    1.000
    H60      H        0.46970    0.08960    0.89830    1.000
    H61      H        0.50140    0.22660    0.86990    1.000
    H62      H        0.40340    0.09730    0.82480    1.000
    H63      H        0.43760    0.23660    0.79540    1.000
    H64      H        0.36940    0.00290    0.29170    1.000
    H65      H        0.32480    0.33100    0.29760    1.000
    H66      H        0.32230    0.88490    0.29210    1.000
    H67      H        0.27400    0.21780    0.30400    1.000
    H68      H        0.27680    0.98710    0.30680    1.000
    C69      C        0.35189    0.70270    0.93673    1.000
    C70      C        0.32569    0.63680    0.92164    1.000
    C71      C        0.30644    0.54470    0.93883    1.000
    C72      C        0.31546    0.51550    0.97091    1.000
    C73      C        0.34092    0.57710    0.98638    1.000
    C74      C        0.35905    0.67000    0.96905    1.000
    C75      C        0.35146    0.53780    0.02107    1.000
    C76      C        0.38335    0.54430    0.03155    1.000
    C77      C        0.39270    0.50950    0.06315    1.000
    C78      C        0.37071    0.46420    0.08568    1.000
    C79      C        0.33755    0.46030    0.07571    1.000
    C80      C        0.32912    0.49660    0.04383    1.000
    C81      C        0.38090    0.42690    0.12077    1.000
    C82      C        0.41273    0.39380    0.12810    1.000
    C83      C        0.42220    0.35780    0.15962    1.000
    C84      C        0.39890    0.35250    0.18522    1.000
    C85      C        0.36743    0.38460    0.17727    1.000
    C86      C        0.35820    0.42240    0.14583    1.000
    C87      C        0.27967    0.47700    0.92121    1.000
    C88      C        0.25208    0.44270    0.93770    1.000
    C89      C        0.22520    0.38020    0.92116    1.000
    C90      C        0.22899    0.34630    0.88823    1.000
    C91      C        0.25791    0.37970    0.87132    1.000
    C92      C        0.28250    0.44440    0.88829    1.000
    C93      C        0.20219    0.27420    0.87040    1.000
    C94      C        0.20867    0.18260    0.84517    1.000
    C95      C        0.18379    0.11750    0.82885    1.000
    C96      C        0.14456    0.23220    0.86183    1.000
    C97      C        0.16900    0.29700    0.87852    1.000
    C98      C        0.38711    0.90430    0.93365    1.000
    C99      C        0.37210    0.80130    0.91770    1.000
    C100     C        0.37600    0.78930    0.88324    1.000
    C101     C        0.40927    0.31650    0.21945    1.000
    C102     C        0.13823    0.70140    0.47104    1.000
    C103     C        0.12899    0.65780    0.50231    1.000
    C104     C        0.14632    0.55850    0.51978    1.000
    C105     C        0.17420    0.50740    0.50519    1.000
    C106     C        0.18517    0.55110    0.47424    1.000
    C107     C        0.16758    0.64830    0.45823    1.000
    C108     C        0.11872    0.79780    0.45187    1.000
    C109     C        0.09097    0.85610    0.46491    1.000
    C110     C        0.07253    0.94140    0.44719    1.000
    C111     C        0.07981    0.97340    0.41572    1.000
    C112     C        0.10715    0.91700    0.40277    1.000
    C113     C        0.12660    0.82950    0.42012    1.000
    C114     C        0.05890    0.06740    0.39573    1.000
    C115     C        0.04217    0.17110    0.41063    1.000
    C116     C        0.02176    0.25310    0.39289    1.000
    C117     C        0.01733    0.23560    0.35992    1.000
    C118     C        0.03450    0.13440    0.34326    1.000
    C119     C        0.05556    0.04940    0.36093    1.000
    C120     C        0.21488    0.49690    0.45976    1.000
    C121     C        0.23602    0.57990    0.44109    1.000
    C122     C        0.26487    0.53080    0.42832    1.000
    C123     C        0.27386    0.39560    0.43123    1.000
    C124     C        0.25216    0.31880    0.44933    1.000
    C125     C        0.22451    0.36670    0.46344    1.000
    C126     C        0.13494    0.51680    0.55239    1.000
    C127     C        0.12314    0.60050    0.57501    1.000
    C128     C        0.11240    0.56120    0.60641    1.000
    C129     C        0.11562    0.43010    0.61668    1.000
    C130     C        0.12833    0.34400    0.59335    1.000
    C131     C        0.13772    0.38140    0.56265    1.000
    C132     C        0.10451    0.38980    0.65024    1.000
    C133     C        0.10071    0.47530    0.67504    1.000
    C134     C        0.09100    0.43970    0.70638    1.000
    C135     C        0.08515    0.30790    0.71309    1.000
    C136     C        0.08790    0.22040    0.68830    1.000
    C137     C        0.09650    0.26120    0.65699    1.000
    C138     C        0.30307    0.34700    0.41524    1.000
    C139     C        0.30524    0.21460    0.40500    1.000
    C140     C        0.33261    0.16630    0.39013    1.000
    C141     C        0.35531    0.38220    0.39117    1.000
    C142     C        0.32905    0.42770    0.40685    1.000
    C143     C        0.99313    0.31120    0.33934    1.000
    C144     C        0.49391    0.10290    0.20772    1.000
    C145     C        0.50640    0.00260    0.18851    1.000
    C146     C        0.51630    0.88370    0.20450    1.000
    C147     C        0.50874    0.86370    0.23556    1.000
    C148     C        0.49440    0.96570    0.25358    1.000
    C149     C        0.35880    0.24970    0.38232    1.000
    C150     C        0.15219    0.14350    0.83673    1.000
    C151     C        0.41167    0.98080    0.88267    1.000
    C152     C        0.40654    0.99200    0.91690    1.000
    C153     C        0.43219    0.07920    0.86412    1.000
    C154     C        0.12503    0.07190    0.81867    1.000
    C155     C        0.39575    0.87680    0.86643    1.000
    C156     C        0.38746    0.19990    0.36364    1.000
    C157     C        0.07546    0.26530    0.74661    1.000
    C158     C        0.47345    0.24970    0.82911    1.000
    C159     C        0.46289    0.12020    0.87747    1.000
    C160     C        0.48146    0.20050    0.86045    1.000
    C161     C        0.42345    0.12330    0.83407    1.000
    C162     C        0.44400    0.20750    0.81650    1.000
    C163     C        0.34956    0.04820    0.29411    1.000
    C164     C        0.32467    0.23820    0.29820    1.000
    C165     C        0.49472    0.34110    0.80995    1.000
    C166     C        0.32200    0.97660    0.29560    1.000
    C167     C        0.29376    0.17200    0.30190    1.000
    C168     C        0.29560    0.03650    0.30190    1.000
    N169     N        0.48716    0.08340    0.24006    1.000
    N170     N        0.35044    0.18120    0.29582    1.000
    O171     O        0.43831    0.28570    0.22501    1.000
    O172     O        0.38739    0.31970    0.24125    1.000
    O173     O        0.06008    0.88060    0.79545    1.000
    O174     O        0.07798    0.34170    0.77093    1.000
    O175     O        0.99444    0.30810    0.30969    1.000
    O176     O        0.97243    0.37090    0.35604    1.000
    O177     O        0.42571    0.11980    0.28892    1.000
    O178     O        0.13227    0.97420    0.80121    1.000
    O179     O        0.39441    0.07970    0.36454    1.000
    O180     O        0.09591    0.11740    0.82316    1.000
    O181     O        0.40399    0.28410    0.34715    1.000
    O182     O        0.06695    0.14240    0.74993    1.000
    O183     O        0.48428    0.39940    0.78487    1.000
    O184     O        0.52483    0.35010    0.81955    1.000
    H185     H        0.42571    0.01515    0.28397    1.000
    H186     H        0.43992    0.38060    0.32021    1.000
    Zn187    Zn       0.94070    0.92770    0.29331    1.000
    Zn188    Zn       0.60646    0.70381    0.79006    1.000
    Zn189    Zn       0.53548    0.76393    0.76700    1.000
    Zn190    Zn       0.06690    0.56448    0.83467    1.000
    H191     H        0.67910    0.34520    0.39930    1.000
    H192     H        0.69630    0.54910    0.48260    1.000
    H193     H        0.62330    0.28830    0.47960    1.000
    H194     H        0.60060    0.42650    0.51660    1.000
    H195     H        0.58530    0.48280    0.56930    1.000
    H196     H        0.67860    0.56690    0.59070    1.000
    H197     H        0.69290    0.50720    0.53760    1.000
    H198     H        0.57160    0.60420    0.61110    1.000
    H199     H        0.55590    0.66310    0.66400    1.000
    H200     H        0.64850    0.61940    0.69390    1.000
    H201     H        0.66360    0.55480    0.64150    1.000
    H202     H        0.74950    0.53960    0.46050    1.000
    H203     H        0.79440    0.63720    0.43240    1.000
    H204     H        0.73950    0.64170    0.34880    1.000
    H205     H        0.69830    0.53330    0.37690    1.000
    H206     H        0.76960    0.83480    0.33920    1.000
    H207     H        0.81130    0.94470    0.31230    1.000
    H208     H        0.87730    0.75210    0.36740    1.000
    H209     H        0.83630    0.64300    0.39540    1.000
    H210     H        0.61600    0.08500    0.45660    1.000
    H211     H        0.63480    0.27810    0.37170    1.000
    H212     H        0.88950    0.30440    0.01230    1.000
    H213     H        0.81400    0.55840    0.01640    1.000
    H214     H        0.82460    0.31930    0.93790    1.000
    H215     H        0.91520    0.16430    0.98670    1.000
    H216     H        0.94590    0.02060    0.95720    1.000
    H217     H        0.88690    0.06140    0.88100    1.000
    H218     H        0.85490    0.20770    0.91010    1.000
    H219     H        0.95510    0.81430    0.93350    1.000
    H220     H        0.98920    0.67800    0.90380    1.000
    H221     H        0.96810    0.87630    0.82030    1.000
    H222     H        0.93290    0.01770    0.84990    1.000
    H223     H        0.76970    0.33140    0.93740    1.000
    H224     H        0.72090    0.41100    0.91730    1.000
    H225     H        0.74310    0.77140    0.95200    1.000
    H226     H        0.78850    0.69050    0.97610    1.000
    H227     H        0.87800    0.30940    0.06950    1.000
    H228     H        0.89700    0.37650    0.12070    1.000
    H229     H        0.86940    0.74540    0.09920    1.000
    H230     H        0.85390    0.68170    0.04790    1.000
    H231     H        0.89510    0.43500    0.17090    1.000
    H232     H        0.91160    0.49610    0.22300    1.000
    H233     H        0.91620    0.86950    0.19230    1.000
    H234     H        0.90300    0.80100    0.13970    1.000
    H235     H        0.71260    0.84190    0.90850    1.000
    H236     H        0.66610    0.92410    0.88510    1.000
    H237     H        0.62790    0.55850    0.88590    1.000
    H238     H        0.67190    0.48220    0.91240    1.000
    H239     H        0.51000    0.81390    0.69820    1.000
    H240     H        0.49160    0.98770    0.66540    1.000
    H241     H        0.47170    0.18020    0.69280    1.000
    H242     H        0.48710    0.21840    0.74560    1.000
    H243     H        0.51040    0.04830    0.77610    1.000
    H244     H        0.58340    0.93890    0.42860    1.000
    H245     H        0.60140    0.13360    0.34350    1.000
    H246     H        0.53030    0.91040    0.39830    1.000
    H247     H        0.49860    0.77340    0.36990    1.000
    H248     H        0.59660    0.90270    0.32480    1.000
    H249     H        0.56240    0.76340    0.29540    1.000
    H250     H        0.63060    0.99710    0.79170    1.000
    H251     H        0.67520    0.66900    0.79760    1.000
    H252     H        0.67770    0.11510    0.79210    1.000
    H253     H        0.72600    0.78220    0.80400    1.000
    H254     H        0.72320    0.01290    0.80680    1.000
    C255     C        0.64811    0.29730    0.43673    1.000
    C256     C        0.67431    0.36320    0.42164    1.000
    C257     C        0.69356    0.45530    0.43883    1.000
    C258     C        0.68454    0.48450    0.47091    1.000
    C259     C        0.65908    0.42290    0.48638    1.000
    C260     C        0.64095    0.33000    0.46905    1.000
    C261     C        0.64854    0.46220    0.52107    1.000
    C262     C        0.61665    0.45570    0.53155    1.000
    C263     C        0.60730    0.49050    0.56315    1.000
    C264     C        0.62929    0.53580    0.58568    1.000
    C265     C        0.66245    0.53970    0.57571    1.000
    C266     C        0.67088    0.50340    0.54383    1.000
    C267     C        0.61910    0.57310    0.62077    1.000
    C268     C        0.58727    0.60620    0.62810    1.000
    C269     C        0.57780    0.64220    0.65962    1.000
    C270     C        0.60110    0.64750    0.68522    1.000
    C271     C        0.63257    0.61540    0.67727    1.000
    C272     C        0.64180    0.57760    0.64583    1.000
    C273     C        0.72033    0.52300    0.42121    1.000
    C274     C        0.74792    0.55730    0.43770    1.000
    C275     C        0.77480    0.61980    0.42116    1.000
    C276     C        0.77101    0.65370    0.38823    1.000
    C277     C        0.74209    0.62030    0.37132    1.000
    C278     C        0.71750    0.55560    0.38829    1.000
    C279     C        0.79781    0.72580    0.37040    1.000
    C280     C        0.79133    0.81740    0.34517    1.000
    C281     C        0.81621    0.88250    0.32885    1.000
    C282     C        0.85544    0.76780    0.36183    1.000
    C283     C        0.83100    0.70300    0.37852    1.000
    C284     C        0.61289    0.09570    0.43365    1.000
    C285     C        0.62790    0.19870    0.41770    1.000
    C286     C        0.62400    0.21070    0.38324    1.000
    C287     C        0.59073    0.68350    0.71945    1.000
    C288     C        0.86177    0.29860    0.97104    1.000
    C289     C        0.87101    0.34220    0.00231    1.000
    C290     C        0.85368    0.44150    0.01978    1.000
    C291     C        0.82580    0.49260    0.00519    1.000
    C292     C        0.81483    0.44890    0.97424    1.000
    C293     C        0.83242    0.35170    0.95823    1.000
    C294     C        0.88128    0.20220    0.95187    1.000
    C295     C        0.90903    0.14390    0.96491    1.000
    C296     C        0.92747    0.05860    0.94719    1.000
    C297     C        0.92019    0.02660    0.91572    1.000
    C298     C        0.89285    0.08300    0.90277    1.000
    C299     C        0.87340    0.17050    0.92012    1.000
    C300     C        0.94110    0.93260    0.89573    1.000
    C301     C        0.95783    0.82890    0.91063    1.000
    C302     C        0.97824    0.74690    0.89289    1.000
    C303     C        0.98267    0.76440    0.85992    1.000
    C304     C        0.96550    0.86560    0.84326    1.000
    C305     C        0.94444    0.95060    0.86093    1.000
    C306     C        0.78512    0.50310    0.95976    1.000
    C307     C        0.76398    0.42010    0.94109    1.000
    C308     C        0.73513    0.46920    0.92832    1.000
    C309     C        0.72614    0.60440    0.93123    1.000
    C310     C        0.74784    0.68120    0.94933    1.000
    C311     C        0.77549    0.63330    0.96344    1.000
    C312     C        0.86506    0.48320    0.05239    1.000
    C313     C        0.87686    0.39950    0.07501    1.000
    C314     C        0.88760    0.43880    0.10641    1.000
    C315     C        0.88438    0.56990    0.11668    1.000
    C316     C        0.87167    0.65600    0.09335    1.000
    C317     C        0.86228    0.61860    0.06265    1.000
    C318     C        0.89549    0.61020    0.15024    1.000
    C319     C        0.89929    0.52470    0.17504    1.000
    C320     C        0.90900    0.56030    0.20638    1.000
    C321     C        0.91485    0.69210    0.21309    1.000
    C322     C        0.91210    0.77960    0.18830    1.000
    C323     C        0.90350    0.73880    0.15699    1.000
    C324     C        0.69693    0.65300    0.91524    1.000
    C325     C        0.69476    0.78540    0.90500    1.000
    C326     C        0.66739    0.83370    0.89013    1.000
    C327     C        0.64469    0.61780    0.89117    1.000
    C328     C        0.67095    0.57230    0.90685    1.000
    C329     C        0.00687    0.68880    0.83934    1.000
    C330     C        0.50609    0.89710    0.70772    1.000
    C331     C        0.49360    0.99740    0.68851    1.000
    C332     C        0.48370    0.11630    0.70450    1.000
    C333     C        0.49126    0.13630    0.73556    1.000
    C334     C        0.50560    0.03430    0.75358    1.000
    C335     C        0.64120    0.75030    0.88232    1.000
    C336     C        0.84781    0.85650    0.33673    1.000
    C337     C        0.58833    0.01920    0.38267    1.000
    C338     C        0.59346    0.00800    0.41690    1.000
    C339     C        0.56781    0.92080    0.36412    1.000
    C340     C        0.87497    0.92810    0.31867    1.000
    C341     C        0.60425    0.12320    0.36643    1.000
    C342     C        0.61254    0.80010    0.86364    1.000
    C343     C        0.92454    0.73470    0.24661    1.000
    C344     C        0.52655    0.75030    0.32911    1.000
    C345     C        0.53711    0.87980    0.37747    1.000
    C346     C        0.51854    0.79950    0.36045    1.000
    C347     C        0.57655    0.87670    0.33407    1.000
    C348     C        0.55600    0.79250    0.31650    1.000
    C349     C        0.65044    0.95180    0.79411    1.000
    C350     C        0.67533    0.76180    0.79820    1.000
    C351     C        0.50528    0.65890    0.30995    1.000
    C352     C        0.67800    0.02340    0.79560    1.000
    C353     C        0.70624    0.82800    0.80190    1.000
    C354     C        0.70440    0.96350    0.80190    1.000
    N355     N        0.51284    0.91660    0.74006    1.000
    N356     N        0.64956    0.81880    0.79582    1.000
    O357     O        0.56169    0.71430    0.72501    1.000
    O358     O        0.61261    0.68030    0.74125    1.000
    O359     O        0.93992    0.11940    0.29545    1.000
    O360     O        0.92202    0.65830    0.27093    1.000
    O361     O        0.00556    0.69190    0.80969    1.000
    O362     O        0.02757    0.62910    0.85604    1.000
    O363     O        0.57429    0.88020    0.78892    1.000
    O364     O        0.86773    0.02580    0.30121    1.000
    O365     O        0.60559    0.92030    0.86454    1.000
    O366     O        0.90409    0.88260    0.32316    1.000
    O367     O        0.59601    0.71590    0.84715    1.000
    O368     O        0.93305    0.85760    0.24993    1.000
    O369     O        0.51572    0.60060    0.28487    1.000
    O370     O        0.47517    0.64990    0.31955    1.000
    H371     H        0.57429    0.98485    0.78397    1.000
    H372     H        0.56008    0.61940    0.82021    1.000
    Zn373    Zn       0.55930    0.42770    0.79331    1.000
    Zn374    Zn       0.89354    0.20381    0.29006    1.000
    Zn375    Zn       0.96452    0.26393    0.26700    1.000
    Zn376    Zn       0.43310    0.06448    0.33467    1.000
    H377     H        0.82090    0.84520    0.89930    1.000
    H378     H        0.80370    0.04910    0.98260    1.000
    H379     H        0.87670    0.78830    0.97960    1.000
    H380     H        0.89940    0.92650    0.01660    1.000
    H381     H        0.91470    0.98280    0.06930    1.000
    H382     H        0.82140    0.06690    0.09070    1.000
    H383     H        0.80710    0.00720    0.03760    1.000
    H384     H        0.92840    0.10420    0.11110    1.000
    H385     H        0.94410    0.16310    0.16400    1.000
    H386     H        0.85150    0.11940    0.19390    1.000
    H387     H        0.83640    0.05480    0.14150    1.000
    H388     H        0.75050    0.03960    0.96050    1.000
    H389     H        0.70560    0.13720    0.93240    1.000
    H390     H        0.76050    0.14170    0.84880    1.000
    H391     H        0.80170    0.03330    0.87690    1.000
    H392     H        0.73040    0.33480    0.83920    1.000
    H393     H        0.68870    0.44470    0.81230    1.000
    H394     H        0.62270    0.25210    0.86740    1.000
    H395     H        0.66370    0.14300    0.89540    1.000
    H396     H        0.88400    0.58500    0.95660    1.000
    H397     H        0.86520    0.77810    0.87170    1.000
    H398     H        0.61050    0.80440    0.51230    1.000
    H399     H        0.68600    0.05840    0.51640    1.000
    H400     H        0.67540    0.81930    0.43790    1.000
    H401     H        0.58480    0.66430    0.48670    1.000
    H402     H        0.55410    0.52060    0.45720    1.000
    H403     H        0.61310    0.56140    0.38100    1.000
    H404     H        0.64510    0.70770    0.41010    1.000
    H405     H        0.54490    0.31430    0.43350    1.000
    H406     H        0.51080    0.17800    0.40380    1.000
    H407     H        0.53190    0.37630    0.32030    1.000
    H408     H        0.56710    0.51770    0.34990    1.000
    H409     H        0.73030    0.83140    0.43740    1.000
    H410     H        0.77910    0.91100    0.41730    1.000
    H411     H        0.75690    0.27140    0.45200    1.000
    H412     H        0.71150    0.19050    0.47610    1.000
    H413     H        0.62200    0.80940    0.56950    1.000
    H414     H        0.60300    0.87650    0.62070    1.000
    H415     H        0.63060    0.24540    0.59920    1.000
    H416     H        0.64610    0.18170    0.54790    1.000
    H417     H        0.60490    0.93500    0.67090    1.000
    H418     H        0.58840    0.99610    0.72300    1.000
    H419     H        0.58380    0.36950    0.69230    1.000
    H420     H        0.59700    0.30100    0.63970    1.000
    H421     H        0.78740    0.34190    0.40850    1.000
    H422     H        0.83390    0.42410    0.38510    1.000
    H423     H        0.87210    0.05850    0.38590    1.000
    H424     H        0.82810    0.98220    0.41240    1.000
    H425     H        0.99000    0.31390    0.19820    1.000
    H426     H        0.00840    0.48770    0.16540    1.000
    H427     H        0.02830    0.68020    0.19280    1.000
    H428     H        0.01290    0.71840    0.24560    1.000
    H429     H        0.98960    0.54830    0.27610    1.000
    H430     H        0.91660    0.43890    0.92860    1.000
    H431     H        0.89860    0.63360    0.84350    1.000
    H432     H        0.96970    0.41040    0.89830    1.000
    H433     H        0.00140    0.27340    0.86990    1.000
    H434     H        0.90340    0.40270    0.82480    1.000
    H435     H        0.93760    0.26340    0.79540    1.000
    H436     H        0.86940    0.49710    0.29170    1.000
    H437     H        0.82480    0.16900    0.29760    1.000
    H438     H        0.82230    0.61510    0.29210    1.000
    H439     H        0.77400    0.28220    0.30400    1.000
    H440     H        0.77680    0.51290    0.30680    1.000
    C441     C        0.85189    0.79730    0.93673    1.000
    C442     C        0.82569    0.86320    0.92164    1.000
    C443     C        0.80644    0.95530    0.93883    1.000
    C444     C        0.81546    0.98450    0.97091    1.000
    C445     C        0.84092    0.92290    0.98638    1.000
    C446     C        0.85905    0.83000    0.96905    1.000
    C447     C        0.85146    0.96220    0.02107    1.000
    C448     C        0.88335    0.95570    0.03155    1.000
    C449     C        0.89270    0.99050    0.06315    1.000
    C450     C        0.87071    0.03580    0.08568    1.000
    C451     C        0.83755    0.03970    0.07571    1.000
    C452     C        0.82912    0.00340    0.04383    1.000
    C453     C        0.88090    0.07310    0.12077    1.000
    C454     C        0.91273    0.10620    0.12810    1.000
    C455     C        0.92220    0.14220    0.15962    1.000
    C456     C        0.89890    0.14750    0.18522    1.000
    C457     C        0.86743    0.11540    0.17727    1.000
    C458     C        0.85820    0.07760    0.14583    1.000
    C459     C        0.77967    0.02300    0.92121    1.000
    C460     C        0.75208    0.05730    0.93770    1.000
    C461     C        0.72520    0.11980    0.92116    1.000
    C462     C        0.72899    0.15370    0.88823    1.000
    C463     C        0.75791    0.12030    0.87132    1.000
    C464     C        0.78250    0.05560    0.88829    1.000
    C465     C        0.70219    0.22580    0.87040    1.000
    C466     C        0.70867    0.31740    0.84517    1.000
    C467     C        0.68379    0.38250    0.82885    1.000
    C468     C        0.64456    0.26780    0.86183    1.000
    C469     C        0.66900    0.20300    0.87852    1.000
    C470     C        0.88711    0.59570    0.93365    1.000
    C471     C        0.87210    0.69870    0.91770    1.000
    C472     C        0.87600    0.71070    0.88324    1.000
    C473     C        0.90927    0.18350    0.21945    1.000
    C474     C        0.63823    0.79860    0.47104    1.000
    C475     C        0.62899    0.84220    0.50231    1.000
    C476     C        0.64632    0.94150    0.51978    1.000
    C477     C        0.67420    0.99260    0.50519    1.000
    C478     C        0.68517    0.94890    0.47424    1.000
    C479     C        0.66758    0.85170    0.45823    1.000
    C480     C        0.61872    0.70220    0.45187    1.000
    C481     C        0.59097    0.64390    0.46491    1.000
    C482     C        0.57253    0.55860    0.44719    1.000
    C483     C        0.57981    0.52660    0.41572    1.000
    C484     C        0.60715    0.58300    0.40277    1.000
    C485     C        0.62660    0.67050    0.42012    1.000
    C486     C        0.55890    0.43260    0.39573    1.000
    C487     C        0.54217    0.32890    0.41063    1.000
    C488     C        0.52176    0.24690    0.39289    1.000
    C489     C        0.51733    0.26440    0.35992    1.000
    C490     C        0.53450    0.36560    0.34326    1.000
    C491     C        0.55556    0.45060    0.36093    1.000
    C492     C        0.71488    0.00310    0.45976    1.000
    C493     C        0.73602    0.92010    0.44109    1.000
    C494     C        0.76487    0.96920    0.42832    1.000
    C495     C        0.77386    0.10440    0.43123    1.000
    C496     C        0.75216    0.18120    0.44933    1.000
    C497     C        0.72451    0.13330    0.46344    1.000
    C498     C        0.63494    0.98320    0.55239    1.000
    C499     C        0.62314    0.89950    0.57501    1.000
    C500     C        0.61240    0.93880    0.60641    1.000
    C501     C        0.61562    0.06990    0.61668    1.000
    C502     C        0.62833    0.15600    0.59335    1.000
    C503     C        0.63772    0.11860    0.56265    1.000
    C504     C        0.60451    0.11020    0.65024    1.000
    C505     C        0.60071    0.02470    0.67504    1.000
    C506     C        0.59100    0.06030    0.70638    1.000
    C507     C        0.58515    0.19210    0.71309    1.000
    C508     C        0.58790    0.27960    0.68830    1.000
    C509     C        0.59650    0.23880    0.65699    1.000
    C510     C        0.80307    0.15300    0.41524    1.000
    C511     C        0.80524    0.28540    0.40500    1.000
    C512     C        0.83261    0.33370    0.39013    1.000
    C513     C        0.85531    0.11780    0.39117    1.000
    C514     C        0.82905    0.07230    0.40685    1.000
    C515     C        0.49313    0.18880    0.33934    1.000
    C516     C        0.99391    0.39710    0.20772    1.000
    C517     C        0.00640    0.49740    0.18851    1.000
    C518     C        0.01630    0.61630    0.20450    1.000
    C519     C        0.00874    0.63630    0.23556    1.000
    C520     C        0.99440    0.53430    0.25358    1.000
    C521     C        0.85880    0.25030    0.38232    1.000
    C522     C        0.65219    0.35650    0.83673    1.000
    C523     C        0.91167    0.51920    0.88267    1.000
    C524     C        0.90654    0.50800    0.91690    1.000
    C525     C        0.93219    0.42080    0.86412    1.000
    C526     C        0.62503    0.42810    0.81867    1.000
    C527     C        0.89575    0.62320    0.86643    1.000
    C528     C        0.88746    0.30010    0.36364    1.000
    C529     C        0.57546    0.23470    0.74661    1.000
    C530     C        0.97345    0.25030    0.82911    1.000
    C531     C        0.96289    0.37980    0.87747    1.000
    C532     C        0.98146    0.29950    0.86045    1.000
    C533     C        0.92345    0.37670    0.83407    1.000
    C534     C        0.94400    0.29250    0.81650    1.000
    C535     C        0.84956    0.45180    0.29411    1.000
    C536     C        0.82467    0.26180    0.29820    1.000
    C537     C        0.99472    0.15890    0.80995    1.000
    C538     C        0.82200    0.52340    0.29560    1.000
    C539     C        0.79376    0.32800    0.30190    1.000
    C540     C        0.79560    0.46350    0.30190    1.000
    N541     N        0.98716    0.41660    0.24006    1.000
    N542     N        0.85044    0.31880    0.29582    1.000
    O543     O        0.93831    0.21430    0.22501    1.000
    O544     O        0.88739    0.18030    0.24125    1.000
    O545     O        0.56008    0.61940    0.79545    1.000
    O546     O        0.57798    0.15830    0.77093    1.000
    O547     O        0.49444    0.19190    0.30969    1.000
    O548     O        0.47243    0.12910    0.35604    1.000
    O549     O        0.92571    0.38020    0.28892    1.000
    O550     O        0.63227    0.52580    0.80121    1.000
    O551     O        0.89441    0.42030    0.36454    1.000
    O552     O        0.59591    0.38260    0.82316    1.000
    O553     O        0.90399    0.21590    0.34715    1.000
    O554     O        0.56695    0.35760    0.74993    1.000
    O555     O        0.98428    0.10060    0.78487    1.000
    O556     O        0.02483    0.14990    0.81955    1.000
    H557     H        0.92571    0.48485    0.28397    1.000
    H558     H        0.93992    0.11940    0.32021    1.000
    Zn559    Zn       0.44070    0.57230    0.29331    1.000
    Zn560    Zn       0.10646    0.79619    0.79006    1.000
    Zn561    Zn       0.03548    0.73607    0.76700    1.000
    Zn562    Zn       0.56690    0.93552    0.83467    1.000
    H563     H        0.17910    0.15480    0.39930    1.000
    H564     H        0.19630    0.95090    0.48260    1.000
    H565     H        0.12330    0.21170    0.47960    1.000
    H566     H        0.10060    0.07350    0.51660    1.000
    H567     H        0.08530    0.01720    0.56930    1.000
    H568     H        0.17860    0.93310    0.59070    1.000
    H569     H        0.19290    0.99280    0.53760    1.000
    H570     H        0.07160    0.89580    0.61110    1.000
    H571     H        0.05590    0.83690    0.66400    1.000
    H572     H        0.14850    0.88060    0.69390    1.000
    H573     H        0.16360    0.94520    0.64150    1.000
    H574     H        0.24950    0.96040    0.46050    1.000
    H575     H        0.29440    0.86280    0.43240    1.000
    H576     H        0.23950    0.85830    0.34880    1.000
    H577     H        0.19830    0.96670    0.37690    1.000
    H578     H        0.26960    0.66520    0.33920    1.000
    H579     H        0.31130    0.55530    0.31230    1.000
    H580     H        0.37730    0.74790    0.36740    1.000
    H581     H        0.33630    0.85700    0.39540    1.000
    H582     H        0.11600    0.41500    0.45660    1.000
    H583     H        0.13480    0.22190    0.37170    1.000
    H584     H        0.38950    0.19560    0.01230    1.000
    H585     H        0.31400    0.94160    0.01640    1.000
    H586     H        0.32460    0.18070    0.93790    1.000
    H587     H        0.41520    0.33570    0.98670    1.000
    H588     H        0.44590    0.47940    0.95720    1.000
    H589     H        0.38690    0.43860    0.88100    1.000
    H590     H        0.35490    0.29230    0.91010    1.000
    H591     H        0.45510    0.68570    0.93350    1.000
    H592     H        0.48920    0.82200    0.90380    1.000
    H593     H        0.46810    0.62370    0.82030    1.000
    H594     H        0.43290    0.48230    0.84990    1.000
    H595     H        0.26970    0.16860    0.93740    1.000
    H596     H        0.22090    0.08900    0.91730    1.000
    H597     H        0.24310    0.72860    0.95200    1.000
    H598     H        0.28850    0.80950    0.97610    1.000
    H599     H        0.37800    0.19060    0.06950    1.000
    H600     H        0.39700    0.12350    0.12070    1.000
    H601     H        0.36940    0.75460    0.09920    1.000
    H602     H        0.35390    0.81830    0.04790    1.000
    H603     H        0.39510    0.06500    0.17090    1.000
    H604     H        0.41160    0.00390    0.22300    1.000
    H605     H        0.41620    0.63050    0.19230    1.000
    H606     H        0.40300    0.69900    0.13970    1.000
    H607     H        0.21260    0.65810    0.90850    1.000
    H608     H        0.16610    0.57590    0.88510    1.000
    H609     H        0.12790    0.94150    0.88590    1.000
    H610     H        0.17190    0.01780    0.91240    1.000
    H611     H        0.01000    0.68610    0.69820    1.000
    H612     H        0.99160    0.51230    0.66540    1.000
    H613     H        0.97170    0.31980    0.69280    1.000
    H614     H        0.98710    0.28160    0.74560    1.000
    H615     H        0.01040    0.45170    0.77610    1.000
    H616     H        0.08340    0.56110    0.42860    1.000
    H617     H        0.10140    0.36640    0.34350    1.000
    H618     H        0.03030    0.58960    0.39830    1.000
    H619     H        0.99860    0.72660    0.36990    1.000
    H620     H        0.09660    0.59730    0.32480    1.000
    H621     H        0.06240    0.73660    0.29540    1.000
    H622     H        0.13060    0.50290    0.79170    1.000
    H623     H        0.17520    0.83100    0.79760    1.000
    H624     H        0.17770    0.38490    0.79210    1.000
    H625     H        0.22600    0.71780    0.80400    1.000
    H626     H        0.22320    0.48710    0.80680    1.000
    C627     C        0.14811    0.20270    0.43673    1.000
    C628     C        0.17431    0.13680    0.42164    1.000
    C629     C        0.19356    0.04470    0.43883    1.000
    C630     C        0.18454    0.01550    0.47091    1.000
    C631     C        0.15908    0.07710    0.48638    1.000
    C632     C        0.14095    0.17000    0.46905    1.000
    C633     C        0.14854    0.03780    0.52107    1.000
    C634     C        0.11665    0.04430    0.53155    1.000
    C635     C        0.10730    0.00950    0.56315    1.000
    C636     C        0.12929    0.96420    0.58568    1.000
    C637     C        0.16245    0.96030    0.57571    1.000
    C638     C        0.17088    0.99660    0.54383    1.000
    C639     C        0.11910    0.92690    0.62077    1.000
    C640     C        0.08727    0.89380    0.62810    1.000
    C641     C        0.07780    0.85780    0.65962    1.000
    C642     C        0.10110    0.85250    0.68522    1.000
    C643     C        0.13257    0.88460    0.67727    1.000
    C644     C        0.14180    0.92240    0.64583    1.000
    C645     C        0.22033    0.97700    0.42121    1.000
    C646     C        0.24792    0.94270    0.43770    1.000
    C647     C        0.27480    0.88020    0.42116    1.000
    C648     C        0.27101    0.84630    0.38823    1.000
    C649     C        0.24209    0.87970    0.37132    1.000
    C650     C        0.21750    0.94440    0.38829    1.000
    C651     C        0.29781    0.77420    0.37040    1.000
    C652     C        0.29133    0.68260    0.34517    1.000
    C653     C        0.31621    0.61750    0.32885    1.000
    C654     C        0.35544    0.73220    0.36183    1.000
    C655     C        0.33100    0.79700    0.37852    1.000
    C656     C        0.11289    0.40430    0.43365    1.000
    C657     C        0.12790    0.30130    0.41770    1.000
    C658     C        0.12400    0.28930    0.38324    1.000
    C659     C        0.09073    0.81650    0.71945    1.000
    C660     C        0.36177    0.20140    0.97104    1.000
    C661     C        0.37101    0.15780    0.00231    1.000
    C662     C        0.35368    0.05850    0.01978    1.000
    C663     C        0.32580    0.00740    0.00519    1.000
    C664     C        0.31483    0.05110    0.97424    1.000
    C665     C        0.33242    0.14830    0.95823    1.000
    C666     C        0.38128    0.29780    0.95187    1.000
    C667     C        0.40903    0.35610    0.96491    1.000
    C668     C        0.42747    0.44140    0.94719    1.000
    C669     C        0.42019    0.47340    0.91572    1.000
    C670     C        0.39285    0.41700    0.90277    1.000
    C671     C        0.37340    0.32950    0.92012    1.000
    C672     C        0.44110    0.56740    0.89573    1.000
    C673     C        0.45783    0.67110    0.91063    1.000
    C674     C        0.47824    0.75310    0.89289    1.000
    C675     C        0.48267    0.73560    0.85992    1.000
    C676     C        0.46550    0.63440    0.84326    1.000
    C677     C        0.44444    0.54940    0.86093    1.000
    C678     C        0.28512    0.99690    0.95976    1.000
    C679     C        0.26398    0.07990    0.94109    1.000
    C680     C        0.23513    0.03080    0.92832    1.000
    C681     C        0.22614    0.89560    0.93123    1.000
    C682     C        0.24784    0.81880    0.94933    1.000
    C683     C        0.27549    0.86670    0.96344    1.000
    C684     C        0.36506    0.01680    0.05239    1.000
    C685     C        0.37686    0.10050    0.07501    1.000
    C686     C        0.38760    0.06120    0.10641    1.000
    C687     C        0.38438    0.93010    0.11668    1.000
    C688     C        0.37167    0.84400    0.09335    1.000
    C689     C        0.36228    0.88140    0.06265    1.000
    C690     C        0.39549    0.88980    0.15024    1.000
    C691     C        0.39929    0.97530    0.17504    1.000
    C692     C        0.40900    0.93970    0.20638    1.000
    C693     C        0.41485    0.80790    0.21309    1.000
    C694     C        0.41210    0.72040    0.18830    1.000
    C695     C        0.40350    0.76120    0.15699    1.000
    C696     C        0.19693    0.84700    0.91524    1.000
    C697     C        0.19476    0.71460    0.90500    1.000
    C698     C        0.16739    0.66630    0.89013    1.000
    C699     C        0.14469    0.88220    0.89117    1.000
    C700     C        0.17095    0.92770    0.90685    1.000
    C701     C        0.50687    0.81120    0.83934    1.000
    C702     C        0.00609    0.60290    0.70772    1.000
    C703     C        0.99360    0.50260    0.68851    1.000
    C704     C        0.98370    0.38370    0.70450    1.000
    C705     C        0.99126    0.36370    0.73556    1.000
    C706     C        0.00560    0.46570    0.75358    1.000
    C707     C        0.14120    0.74970    0.88232    1.000
    C708     C        0.34781    0.64350    0.33673    1.000
    C709     C        0.08833    0.48080    0.38267    1.000
    C710     C        0.09346    0.49200    0.41690    1.000
    C711     C        0.06781    0.57920    0.36412    1.000
    C712     C        0.37497    0.57190    0.31867    1.000
    C713     C        0.10425    0.37680    0.36643    1.000
    C714     C        0.11254    0.69990    0.86364    1.000
    C715     C        0.42454    0.76530    0.24661    1.000
    C716     C        0.02655    0.74970    0.32911    1.000
    C717     C        0.03711    0.62020    0.37747    1.000
    C718     C        0.01854    0.70050    0.36045    1.000
    C719     C        0.07655    0.62330    0.33407    1.000
    C720     C        0.05600    0.70750    0.31650    1.000
    C721     C        0.15044    0.54820    0.79411    1.000
    C722     C        0.17533    0.73820    0.79820    1.000
    C723     C        0.00528    0.84110    0.30995    1.000
    C724     C        0.17800    0.47660    0.79560    1.000
    C725     C        0.20624    0.67200    0.80190    1.000
    C726     C        0.20440    0.53650    0.80190    1.000
    N727     N        0.01284    0.58340    0.74006    1.000
    N728     N        0.14956    0.68120    0.79582    1.000
    O729     O        0.06169    0.78570    0.72501    1.000
    O730     O        0.11261    0.81970    0.74125    1.000
    O731     O        0.43992    0.38060    0.29545    1.000
    O732     O        0.42202    0.84170    0.27093    1.000
    O733     O        0.50556    0.80810    0.80969    1.000
    O734     O        0.52757    0.87090    0.85604    1.000
    O735     O        0.07429    0.61980    0.78892    1.000
    O736     O        0.36773    0.47420    0.30121    1.000
    O737     O        0.10559    0.57970    0.86454    1.000
    O738     O        0.40409    0.61740    0.32316    1.000
    O739     O        0.09601    0.78410    0.84715    1.000
    O740     O        0.43305    0.64240    0.24993    1.000
    O741     O        0.01572    0.89940    0.28487    1.000
    O742     O        0.97517    0.85010    0.31955    1.000
    H743     H        0.07429    0.51515    0.78397    1.000
    H744     H        0.06008    0.88060    0.82021    1.000
