# CIF file generated by openbabel 3.1.0, see https://openbabel.org
data_I
_chemical_name_common 'image0'
_cell_length_a 17.1126
_cell_length_b 27.766
_cell_length_c 9.3275
_cell_angle_alpha 90
_cell_angle_beta 92.046
_cell_angle_gamma 90
_space_group_name_H-M_alt 'P 1'
_space_group_name_Hall 'P 1'
loop_
    _symmetry_equiv_pos_as_xyz
    x,y,z
loop_
    _atom_site_label
    _atom_site_type_symbol
    _atom_site_fract_x
    _atom_site_fract_y
    _atom_site_fract_z
    _atom_site_occupancy
    Zn1      Zn       0.00208    0.29272    0.92829    1.000
    C1       C        0.42920    0.42116    0.75240    1.000
    C2       C        0.50860    0.62545    0.62370    1.000
    H1       H        0.51470    0.64180    0.53780    1.000
    C3       C        0.42940    0.47116    0.75270    1.000
    O1       O        0.50370    0.72458    0.63250    1.000
    C4       C        0.35310    0.39523    0.75290    1.000
    C5       C        0.50800    0.57617    0.62460    1.000
    H2       H        0.51320    0.55960    0.53870    1.000
    C6       C        0.20740    0.34955    0.75540    1.000
    C7       C        0.12890    0.32665    0.75610    1.000
    O2       O        0.10360    0.31510    0.87090    1.000
    N1       N        0.99970    0.28080    0.13260    1.000
    O3       O        0.09230    0.32290    0.64030    1.000
    C8       C        0.25900    0.34380    0.65440    1.000
    H3       H        0.24480    0.32440    0.57660    1.000
    C9       C        0.23250    0.38090    0.86800    1.000
    H4       H        0.19880    0.38790    0.94110    1.000
    C10      C        0.33230    0.36440    0.65600    1.000
    H5       H        0.36720    0.35600    0.58600    1.000
    C11      C        0.30430    0.40050    0.86980    1.000
    H6       H        0.32200    0.41780    0.94990    1.000
    C12      C        0.93150    0.24480    0.18300    1.000
    C13      C        0.07610    0.24800    0.18800    1.000
    C14      C        0.26050    0.34100    0.85360    1.000
    H7       H        0.24910    0.31990    0.92740    1.000
    C15      C        0.22260    0.38280    0.64430    1.000
    H8       H        0.18470    0.38970    0.57340    1.000
    C16      C        0.29580    0.40470    0.64410    1.000
    H9       H        0.30720    0.42600    0.57070    1.000
    C17      C        0.33380    0.36220    0.85320    1.000
    H10      H        0.37100    0.35350    0.92370    1.000
    N2       N        0.35870    0.49760    0.75380    1.000
    Zn2      Zn       0.50208    0.79272    0.92829    1.000
    C18      C        0.92920    0.92116    0.75240    1.000
    C19      C        0.00860    0.12545    0.62370    1.000
    H11      H        0.01470    0.14180    0.53780    1.000
    C20      C        0.92940    0.97116    0.75270    1.000
    O4       O        0.00370    0.22458    0.63250    1.000
    C21      C        0.85310    0.89523    0.75290    1.000
    C22      C        0.00800    0.07617    0.62460    1.000
    H12      H        0.01320    0.05960    0.53870    1.000
    C23      C        0.70740    0.84955    0.75540    1.000
    C24      C        0.62890    0.82665    0.75610    1.000
    O5       O        0.60360    0.81510    0.87090    1.000
    N3       N        0.49970    0.78080    0.13260    1.000
    O6       O        0.59230    0.82290    0.64030    1.000
    C25      C        0.75900    0.84380    0.65440    1.000
    H13      H        0.74480    0.82440    0.57660    1.000
    C26      C        0.73250    0.88090    0.86800    1.000
    H14      H        0.69880    0.88790    0.94110    1.000
    C27      C        0.83230    0.86440    0.65600    1.000
    H15      H        0.86720    0.85600    0.58600    1.000
    C28      C        0.80430    0.90050    0.86980    1.000
    H16      H        0.82200    0.91780    0.94990    1.000
    C29      C        0.43150    0.74480    0.18300    1.000
    C30      C        0.57610    0.74800    0.18800    1.000
    C31      C        0.76050    0.84100    0.85360    1.000
    H17      H        0.74910    0.81990    0.92740    1.000
    C32      C        0.72260    0.88280    0.64430    1.000
    H18      H        0.68470    0.88970    0.57340    1.000
    C33      C        0.79580    0.90470    0.64410    1.000
    H19      H        0.80720    0.92600    0.57070    1.000
    C34      C        0.83380    0.86220    0.85320    1.000
    H20      H        0.87100    0.85350    0.92370    1.000
    N4       N        0.85870    0.99760    0.75380    1.000
    Zn3      Zn       0.99792    0.29272    0.57171    1.000
    C35      C        0.57080    0.42116    0.74760    1.000
    C36      C        0.49140    0.62545    0.87630    1.000
    H21      H        0.48530    0.64180    0.96220    1.000
    C37      C        0.57060    0.47116    0.74730    1.000
    O7       O        0.49630    0.72458    0.86750    1.000
    C38      C        0.64690    0.39523    0.74710    1.000
    C39      C        0.49200    0.57617    0.87540    1.000
    H22      H        0.48680    0.55960    0.96130    1.000
    C40      C        0.79260    0.34955    0.74460    1.000
    C41      C        0.87110    0.32665    0.74390    1.000
    O8       O        0.89640    0.31510    0.62910    1.000
    N5       N        0.00030    0.28080    0.36740    1.000
    O9       O        0.90770    0.32290    0.85970    1.000
    C42      C        0.74100    0.34380    0.84560    1.000
    H23      H        0.75520    0.32440    0.92340    1.000
    C43      C        0.76750    0.38090    0.63200    1.000
    H24      H        0.80120    0.38790    0.55890    1.000
    C44      C        0.66770    0.36440    0.84400    1.000
    H25      H        0.63280    0.35600    0.91400    1.000
    C45      C        0.69570    0.40050    0.63020    1.000
    H26      H        0.67800    0.41780    0.55010    1.000
    C46      C        0.06850    0.24480    0.31700    1.000
    C47      C        0.92390    0.24800    0.31200    1.000
    C48      C        0.73950    0.34100    0.64640    1.000
    H27      H        0.75090    0.31990    0.57260    1.000
    C49      C        0.77740    0.38280    0.85570    1.000
    H28      H        0.81530    0.38970    0.92660    1.000
    C50      C        0.70420    0.40470    0.85590    1.000
    H29      H        0.69280    0.42600    0.92930    1.000
    C51      C        0.66620    0.36220    0.64680    1.000
    H30      H        0.62900    0.35350    0.57630    1.000
    N6       N        0.64130    0.49760    0.74620    1.000
    Zn4      Zn       0.49792    0.79272    0.57171    1.000
    C52      C        0.07080    0.92116    0.74760    1.000
    C53      C        0.99140    0.12545    0.87630    1.000
    H31      H        0.98530    0.14180    0.96220    1.000
    C54      C        0.07060    0.97116    0.74730    1.000
    O10      O        0.99630    0.22458    0.86750    1.000
    C55      C        0.14690    0.89523    0.74710    1.000
    C56      C        0.99200    0.07617    0.87540    1.000
    H32      H        0.98680    0.05960    0.96130    1.000
    C57      C        0.29260    0.84955    0.74460    1.000
    C58      C        0.37110    0.82665    0.74390    1.000
    O11      O        0.39640    0.81510    0.62910    1.000
    N7       N        0.50030    0.78080    0.36740    1.000
    O12      O        0.40770    0.82290    0.85970    1.000
    C59      C        0.24100    0.84380    0.84560    1.000
    H33      H        0.25520    0.82440    0.92340    1.000
    C60      C        0.26750    0.88090    0.63200    1.000
    H34      H        0.30120    0.88790    0.55890    1.000
    C61      C        0.16770    0.86440    0.84400    1.000
    H35      H        0.13280    0.85600    0.91400    1.000
    C62      C        0.19570    0.90050    0.63020    1.000
    H36      H        0.17800    0.91780    0.55010    1.000
    C63      C        0.56850    0.74480    0.31700    1.000
    C64      C        0.42390    0.74800    0.31200    1.000
    C65      C        0.23950    0.84100    0.64640    1.000
    H37      H        0.25090    0.81990    0.57260    1.000
    C66      C        0.27740    0.88280    0.85570    1.000
    H38      H        0.31530    0.88970    0.92660    1.000
    C67      C        0.20420    0.90470    0.85590    1.000
    H39      H        0.19280    0.92600    0.92930    1.000
    C68      C        0.16620    0.86220    0.64680    1.000
    H40      H        0.12900    0.85350    0.57630    1.000
    N8       N        0.14130    0.99760    0.74620    1.000
    C69      C        0.00000    0.29386    0.25000    1.000
    C70      C        0.50000    0.79386    0.25000    1.000
    C71      C        0.50000    0.49710    0.75000    1.000
    C72      C        0.50000    0.39660    0.75000    1.000
    C73      C        0.50000    0.55030    0.75000    1.000
    C74      C        0.50000    0.65130    0.75000    1.000
    C75      C        0.50000    0.70440    0.75000    1.000
    N9       N        0.50000    0.34340    0.75000    1.000
    C76      C        0.00000    0.99710    0.75000    1.000
    C77      C        0.00000    0.89660    0.75000    1.000
    C78      C        0.00000    0.05030    0.75000    1.000
    C79      C        0.00000    0.15130    0.75000    1.000
    C80      C        0.00000    0.20440    0.75000    1.000
    N10      N        0.00000    0.84340    0.75000    1.000
    Zn5      Zn       0.99792    0.70728    0.07171    1.000
    C81      C        0.57080    0.57884    0.24760    1.000
    C82      C        0.49140    0.37455    0.37630    1.000
    H41      H        0.48530    0.35820    0.46220    1.000
    C83      C        0.57060    0.52884    0.24730    1.000
    O13      O        0.49630    0.27542    0.36750    1.000
    C84      C        0.64690    0.60477    0.24710    1.000
    C85      C        0.49200    0.42383    0.37540    1.000
    H42      H        0.48680    0.44040    0.46130    1.000
    C86      C        0.79260    0.65045    0.24460    1.000
    C87      C        0.87110    0.67335    0.24390    1.000
    O14      O        0.89640    0.68490    0.12910    1.000
    N11      N        0.00030    0.71920    0.86740    1.000
    O15      O        0.90770    0.67710    0.35970    1.000
    C88      C        0.74100    0.65620    0.34560    1.000
    H43      H        0.75520    0.67560    0.42340    1.000
    C89      C        0.76750    0.61910    0.13200    1.000
    H44      H        0.80120    0.61210    0.05890    1.000
    C90      C        0.66770    0.63560    0.34400    1.000
    H45      H        0.63280    0.64400    0.41400    1.000
    C91      C        0.69570    0.59950    0.13020    1.000
    H46      H        0.67800    0.58220    0.05010    1.000
    C92      C        0.06850    0.75520    0.81700    1.000
    C93      C        0.92390    0.75200    0.81200    1.000
    C94      C        0.73950    0.65900    0.14640    1.000
    H47      H        0.75090    0.68010    0.07260    1.000
    C95      C        0.77740    0.61720    0.35570    1.000
    H48      H        0.81530    0.61030    0.42660    1.000
    C96      C        0.70420    0.59530    0.35590    1.000
    H49      H        0.69280    0.57400    0.42930    1.000
    C97      C        0.66620    0.63780    0.14680    1.000
    H50      H        0.62900    0.64650    0.07630    1.000
    N12      N        0.64130    0.50240    0.24620    1.000
    Zn6      Zn       0.49792    0.20728    0.07171    1.000
    C98      C        0.07080    0.07884    0.24760    1.000
    C99      C        0.99140    0.87455    0.37630    1.000
    H51      H        0.98530    0.85820    0.46220    1.000
    C100     C        0.07060    0.02884    0.24730    1.000
    O16      O        0.99630    0.77542    0.36750    1.000
    C101     C        0.14690    0.10477    0.24710    1.000
    C102     C        0.99200    0.92383    0.37540    1.000
    H52      H        0.98680    0.94040    0.46130    1.000
    C103     C        0.29260    0.15045    0.24460    1.000
    C104     C        0.37110    0.17335    0.24390    1.000
    O17      O        0.39640    0.18490    0.12910    1.000
    N13      N        0.50030    0.21920    0.86740    1.000
    O18      O        0.40770    0.17710    0.35970    1.000
    C105     C        0.24100    0.15620    0.34560    1.000
    H53      H        0.25520    0.17560    0.42340    1.000
    C106     C        0.26750    0.11910    0.13200    1.000
    H54      H        0.30120    0.11210    0.05890    1.000
    C107     C        0.16770    0.13560    0.34400    1.000
    H55      H        0.13280    0.14400    0.41400    1.000
    C108     C        0.19570    0.09950    0.13020    1.000
    H56      H        0.17800    0.08220    0.05010    1.000
    C109     C        0.56850    0.25520    0.81700    1.000
    C110     C        0.42390    0.25200    0.81200    1.000
    C111     C        0.23950    0.15900    0.14640    1.000
    H57      H        0.25090    0.18010    0.07260    1.000
    C112     C        0.27740    0.11720    0.35570    1.000
    H58      H        0.31530    0.11030    0.42660    1.000
    C113     C        0.20420    0.09530    0.35590    1.000
    H59      H        0.19280    0.07400    0.42930    1.000
    C114     C        0.16620    0.13780    0.14680    1.000
    H60      H        0.12900    0.14650    0.07630    1.000
    N14      N        0.14130    0.00240    0.24620    1.000
    Zn7      Zn       0.00208    0.70728    0.42829    1.000
    C115     C        0.42920    0.57884    0.25240    1.000
    C116     C        0.50860    0.37455    0.12370    1.000
    H61      H        0.51470    0.35820    0.03780    1.000
    C117     C        0.42940    0.52884    0.25270    1.000
    O19      O        0.50370    0.27542    0.13250    1.000
    C118     C        0.35310    0.60477    0.25290    1.000
    C119     C        0.50800    0.42383    0.12460    1.000
    H62      H        0.51320    0.44040    0.03870    1.000
    C120     C        0.20740    0.65045    0.25540    1.000
    C121     C        0.12890    0.67335    0.25610    1.000
    O20      O        0.10360    0.68490    0.37090    1.000
    N15      N        0.99970    0.71920    0.63260    1.000
    O21      O        0.09230    0.67710    0.14030    1.000
    C122     C        0.25900    0.65620    0.15440    1.000
    H63      H        0.24480    0.67560    0.07660    1.000
    C123     C        0.23250    0.61910    0.36800    1.000
    H64      H        0.19880    0.61210    0.44110    1.000
    C124     C        0.33230    0.63560    0.15600    1.000
    H65      H        0.36720    0.64400    0.08600    1.000
    C125     C        0.30430    0.59950    0.36980    1.000
    H66      H        0.32200    0.58220    0.44990    1.000
    C126     C        0.93150    0.75520    0.68300    1.000
    C127     C        0.07610    0.75200    0.68800    1.000
    C128     C        0.26050    0.65900    0.35360    1.000
    H67      H        0.24910    0.68010    0.42740    1.000
    C129     C        0.22260    0.61720    0.14430    1.000
    H68      H        0.18470    0.61030    0.07340    1.000
    C130     C        0.29580    0.59530    0.14410    1.000
    H69      H        0.30720    0.57400    0.07070    1.000
    C131     C        0.33380    0.63780    0.35320    1.000
    H70      H        0.37100    0.64650    0.42370    1.000
    N16      N        0.35870    0.50240    0.25380    1.000
    Zn8      Zn       0.50208    0.20728    0.42829    1.000
    C132     C        0.92920    0.07884    0.25240    1.000
    C133     C        0.00860    0.87455    0.12370    1.000
    H71      H        0.01470    0.85820    0.03780    1.000
    C134     C        0.92940    0.02884    0.25270    1.000
    O22      O        0.00370    0.77542    0.13250    1.000
    C135     C        0.85310    0.10477    0.25290    1.000
    C136     C        0.00800    0.92383    0.12460    1.000
    H72      H        0.01320    0.94040    0.03870    1.000
    C137     C        0.70740    0.15045    0.25540    1.000
    C138     C        0.62890    0.17335    0.25610    1.000
    O23      O        0.60360    0.18490    0.37090    1.000
    N17      N        0.49970    0.21920    0.63260    1.000
    O24      O        0.59230    0.17710    0.14030    1.000
    C139     C        0.75900    0.15620    0.15440    1.000
    H73      H        0.74480    0.17560    0.07660    1.000
    C140     C        0.73250    0.11910    0.36800    1.000
    H74      H        0.69880    0.11210    0.44110    1.000
    C141     C        0.83230    0.13560    0.15600    1.000
    H75      H        0.86720    0.14400    0.08600    1.000
    C142     C        0.80430    0.09950    0.36980    1.000
    H76      H        0.82200    0.08220    0.44990    1.000
    C143     C        0.43150    0.25520    0.68300    1.000
    C144     C        0.57610    0.25200    0.68800    1.000
    C145     C        0.76050    0.15900    0.35360    1.000
    H77      H        0.74910    0.18010    0.42740    1.000
    C146     C        0.72260    0.11720    0.14430    1.000
    H78      H        0.68470    0.11030    0.07340    1.000
    C147     C        0.79580    0.09530    0.14410    1.000
    H79      H        0.80720    0.07400    0.07070    1.000
    C148     C        0.83380    0.13780    0.35320    1.000
    H80      H        0.87100    0.14650    0.42370    1.000
    N18      N        0.85870    0.00240    0.25380    1.000
    C149     C        0.00000    0.70614    0.75000    1.000
    C150     C        0.50000    0.20614    0.75000    1.000
    C151     C        0.50000    0.50290    0.25000    1.000
    C152     C        0.50000    0.60340    0.25000    1.000
    C153     C        0.50000    0.44970    0.25000    1.000
    C154     C        0.50000    0.34870    0.25000    1.000
    C155     C        0.50000    0.29560    0.25000    1.000
    N19      N        0.50000    0.65660    0.25000    1.000
    C156     C        0.00000    0.00290    0.25000    1.000
    C157     C        0.00000    0.10340    0.25000    1.000
    C158     C        0.00000    0.94970    0.25000    1.000
    C159     C        0.00000    0.84870    0.25000    1.000
    C160     C        0.00000    0.79560    0.25000    1.000
    N20      N        0.00000    0.15660    0.25000    1.000
