# CIF file generated by openbabel 3.1.0, see https://openbabel.org
data_I
_chemical_name_common 'image0'
_cell_length_a 29.886
_cell_length_b 28.35
_cell_length_c 15.2719
_cell_angle_alpha 90
_cell_angle_beta 90
_cell_angle_gamma 90
_space_group_name_H-M_alt 'P 1'
_space_group_name_Hall 'P 1'
loop_
    _symmetry_equiv_pos_as_xyz
    x,y,z
loop_
    _atom_site_label
    _atom_site_type_symbol
    _atom_site_fract_x
    _atom_site_fract_y
    _atom_site_fract_z
    _atom_site_occupancy
    Cu1      Cu       0.81631    0.19553    0.94296    1.000
    Cu2      Cu       0.18427    0.16410    0.86157    1.000
    Cu3      Cu       0.36538    0.47827    0.62619    1.000
    N1       N        0.88330    0.19130    0.92480    1.000
    N2       N        0.11760    0.16720    0.87920    1.000
    N3       N        0.21000    0.10230    0.89660    1.000
    N4       N        0.29040    0.86820    0.92740    1.000
    N5       N        0.21850    0.21400    0.80040    1.000
    N6       N        0.33130    0.41660    0.64270    1.000
    N7       N        0.32850    0.53510    0.59140    1.000
    N8       N        0.21800    0.74950    0.48190    1.000
    N9       N        0.42220    0.47690    0.54530    1.000
    N10      N        0.60110    0.50760    0.24270    1.000
    C1       C        0.90230    0.17700    0.84950    1.000
    H1       H        0.88340    0.16930    0.80320    1.000
    C2       C        0.94770    0.17300    0.83640    1.000
    H2       H        0.95890    0.16380    0.78220    1.000
    C3       C        0.97550    0.18250    0.90360    1.000
    C4       C        0.95650    0.19690    0.98380    1.000
    H3       H        0.97460    0.20390    0.03160    1.000
    C5       C        0.91060    0.20040    0.99010    1.000
    H4       H        0.89830    0.20960    0.04340    1.000
    C6       C        0.09130    0.17260    0.80910    1.000
    H5       H        0.10420    0.17230    0.75370    1.000
    C7       C        0.04580    0.17840    0.81640    1.000
    H6       H        0.02860    0.18280    0.76620    1.000
    C8       C        0.02540    0.17780    0.89780    1.000
    C9       C        0.05140    0.17080    0.96840    1.000
    H7       H        0.03870    0.16920    0.02400    1.000
    C10      C        0.09660    0.16630    0.95770    1.000
    H8       H        0.11410    0.16220    0.00760    1.000
    C11      C        0.18320    0.06880    0.93010    1.000
    H9       H        0.15400    0.07680    0.94510    1.000
    C12      C        0.19800    0.02080    0.94380    1.000
    H10      H        0.18000    0.99830    0.97070    1.000
    C13      C        0.24120    0.01030    0.91380    1.000
    C14      C        0.26810    0.04500    0.88290    1.000
    H11      H        0.29760    0.03870    0.86780    1.000
    C15      C        0.25090    0.08990    0.87410    1.000
    H12      H        0.26940    0.11300    0.85080    1.000
    C16      C        0.24710    0.87700    0.92790    1.000
    H13      H        0.22720    0.85190    0.93160    1.000
    C17      C        0.23040    0.92200    0.92330    1.000
    H14      H        0.19960    0.92670    0.92340    1.000
    C18      C        0.25820    0.95950    0.91850    1.000
    C19      C        0.30310    0.95160    0.92160    1.000
    H15      H        0.32310    0.97670    0.92050    1.000
    C20      C        0.31820    0.90660    0.92630    1.000
    H16      H        0.34890    0.90150    0.92890    1.000
    C21      C        0.26220    0.21890    0.80540    1.000
    H17      H        0.27820    0.19530    0.83390    1.000
    C22      C        0.28580    0.25640    0.77140    1.000
    H18      H        0.31690    0.25740    0.77560    1.000
    C23      C        0.26290    0.29240    0.73130    1.000
    C24      C        0.21610    0.28840    0.72950    1.000
    H19      H        0.19880    0.31250    0.70620    1.000
    C25      C        0.19640    0.24930    0.76180    1.000
    H20      H        0.16550    0.24670    0.75690    1.000
    C26      C        0.35210    0.37600    0.65200    1.000
    H21      H        0.38250    0.37470    0.63940    1.000
    C27      C        0.33130    0.33540    0.67940    1.000
    H22      H        0.34770    0.30760    0.68470    1.000
    C28      C        0.28620    0.33560    0.69910    1.000
    C29      C        0.26410    0.37780    0.68640    1.000
    H23      H        0.23360    0.37990    0.69750    1.000
    C30      C        0.28670    0.41630    0.65780    1.000
    H24      H        0.27070    0.44400    0.64810    1.000
    C31      C        0.34500    0.56660    0.53570    1.000
    H25      H        0.37200    0.55950    0.50820    1.000
    C32      C        0.32460    0.60940    0.51570    1.000
    H26      H        0.33930    0.63090    0.47980    1.000
    C33      C        0.28360    0.62020    0.54790    1.000
    C34      C        0.26710    0.58840    0.60480    1.000
    H27      H        0.24020    0.59490    0.63300    1.000
    C35      C        0.28920    0.54560    0.62300    1.000
    H28      H        0.27510    0.52380    0.65920    1.000
    C36      C        0.26110    0.74540    0.47350    1.000
    H29      H        0.27760    0.77110    0.45370    1.000
    C37      C        0.28350    0.70330    0.49350    1.000
    H30      H        0.31420    0.70110    0.48420    1.000
    C38      C        0.26080    0.66550    0.52640    1.000
    C39      C        0.21700    0.67060    0.53630    1.000
    H31      H        0.20010    0.64630    0.56040    1.000
    C40      C        0.19630    0.71280    0.51010    1.000
    H32      H        0.16520    0.71450    0.51310    1.000
    C41      C        0.43240    0.44510    0.48700    1.000
    H33      H        0.41520    0.41780    0.48610    1.000
    C42      C        0.46630    0.44850    0.42690    1.000
    H34      H        0.47010    0.42530    0.38460    1.000
    C43      C        0.49460    0.48670    0.42990    1.000
    C44      C        0.48630    0.51890    0.49400    1.000
    H35      H        0.50570    0.54420    0.50140    1.000
    C45      C        0.45010    0.51470    0.54700    1.000
    H36      H        0.44420    0.53890    0.58650    1.000
    C46      C        0.58640    0.46330    0.26250    1.000
    H37      H        0.59980    0.43750    0.23530    1.000
    C47      C        0.55210    0.45540    0.32230    1.000
    H38      H        0.54240    0.42480    0.33330    1.000
    C48      C        0.53220    0.49260    0.36540    1.000
    C49      C        0.54890    0.53700    0.34630    1.000
    H39      H        0.53700    0.56320    0.37430    1.000
    C50      C        0.58250    0.54270    0.28740    1.000
    H40      H        0.59310    0.57310    0.27770    1.000
    Cu4      Cu       0.18369    0.80447    0.44296    1.000
    Cu5      Cu       0.81573    0.83590    0.36157    1.000
    Cu6      Cu       0.63462    0.52173    0.12619    1.000
    N11      N        0.11670    0.80870    0.42480    1.000
    N12      N        0.88240    0.83280    0.37920    1.000
    N13      N        0.79000    0.89770    0.39660    1.000
    N14      N        0.70960    0.13180    0.42740    1.000
    N15      N        0.78150    0.78600    0.30040    1.000
    N16      N        0.66870    0.58340    0.14270    1.000
    N17      N        0.67150    0.46490    0.09140    1.000
    N18      N        0.78200    0.25050    0.98190    1.000
    N19      N        0.57780    0.52310    0.04530    1.000
    N20      N        0.39890    0.49240    0.74270    1.000
    C51      C        0.09770    0.82300    0.34950    1.000
    H41      H        0.11660    0.83070    0.30320    1.000
    C52      C        0.05230    0.82700    0.33640    1.000
    H42      H        0.04110    0.83620    0.28220    1.000
    C53      C        0.02450    0.81750    0.40360    1.000
    C54      C        0.04350    0.80310    0.48380    1.000
    H43      H        0.02540    0.79610    0.53160    1.000
    C55      C        0.08940    0.79960    0.49010    1.000
    H44      H        0.10170    0.79040    0.54340    1.000
    C56      C        0.90870    0.82740    0.30910    1.000
    H45      H        0.89580    0.82770    0.25370    1.000
    C57      C        0.95420    0.82160    0.31640    1.000
    H46      H        0.97140    0.81720    0.26620    1.000
    C58      C        0.97460    0.82220    0.39780    1.000
    C59      C        0.94860    0.82920    0.46840    1.000
    H47      H        0.96130    0.83080    0.52400    1.000
    C60      C        0.90340    0.83370    0.45770    1.000
    H48      H        0.88590    0.83780    0.50760    1.000
    C61      C        0.81680    0.93120    0.43010    1.000
    H49      H        0.84600    0.92320    0.44510    1.000
    C62      C        0.80200    0.97920    0.44380    1.000
    H50      H        0.82000    0.00170    0.47070    1.000
    C63      C        0.75880    0.98970    0.41380    1.000
    C64      C        0.73190    0.95500    0.38290    1.000
    H51      H        0.70240    0.96130    0.36780    1.000
    C65      C        0.74910    0.91010    0.37410    1.000
    H52      H        0.73060    0.88700    0.35080    1.000
    C66      C        0.75290    0.12300    0.42790    1.000
    H53      H        0.77280    0.14810    0.43160    1.000
    C67      C        0.76960    0.07800    0.42330    1.000
    H54      H        0.80040    0.07330    0.42340    1.000
    C68      C        0.74180    0.04050    0.41850    1.000
    C69      C        0.69690    0.04840    0.42160    1.000
    H55      H        0.67690    0.02330    0.42050    1.000
    C70      C        0.68180    0.09340    0.42630    1.000
    H56      H        0.65110    0.09850    0.42890    1.000
    C71      C        0.73780    0.78110    0.30540    1.000
    H57      H        0.72180    0.80470    0.33390    1.000
    C72      C        0.71420    0.74360    0.27140    1.000
    H58      H        0.68310    0.74260    0.27560    1.000
    C73      C        0.73710    0.70760    0.23130    1.000
    C74      C        0.78390    0.71160    0.22950    1.000
    H59      H        0.80120    0.68750    0.20620    1.000
    C75      C        0.80360    0.75070    0.26180    1.000
    H60      H        0.83450    0.75330    0.25690    1.000
    C76      C        0.64790    0.62400    0.15200    1.000
    H61      H        0.61750    0.62530    0.13940    1.000
    C77      C        0.66870    0.66460    0.17940    1.000
    H62      H        0.65230    0.69240    0.18470    1.000
    C78      C        0.71380    0.66440    0.19910    1.000
    C79      C        0.73590    0.62220    0.18640    1.000
    H63      H        0.76640    0.62010    0.19750    1.000
    C80      C        0.71330    0.58370    0.15780    1.000
    H64      H        0.72930    0.55600    0.14810    1.000
    C81      C        0.65500    0.43340    0.03570    1.000
    H65      H        0.62800    0.44050    0.00820    1.000
    C82      C        0.67540    0.39060    0.01570    1.000
    H66      H        0.66070    0.36910    0.97980    1.000
    C83      C        0.71640    0.37980    0.04790    1.000
    C84      C        0.73290    0.41160    0.10480    1.000
    H67      H        0.75980    0.40510    0.13300    1.000
    C85      C        0.71080    0.45440    0.12300    1.000
    H68      H        0.72490    0.47620    0.15920    1.000
    C86      C        0.73890    0.25460    0.97350    1.000
    H69      H        0.72240    0.22890    0.95370    1.000
    C87      C        0.71650    0.29670    0.99350    1.000
    H70      H        0.68580    0.29890    0.98420    1.000
    C88      C        0.73920    0.33450    0.02640    1.000
    C89      C        0.78300    0.32940    0.03630    1.000
    H71      H        0.79990    0.35370    0.06040    1.000
    C90      C        0.80370    0.28720    0.01010    1.000
    H72      H        0.83480    0.28550    0.01310    1.000
    C91      C        0.56760    0.55490    0.98700    1.000
    H73      H        0.58480    0.58220    0.98610    1.000
    C92      C        0.53370    0.55150    0.92690    1.000
    H74      H        0.52990    0.57470    0.88460    1.000
    C93      C        0.50540    0.51330    0.92990    1.000
    C94      C        0.51370    0.48110    0.99400    1.000
    H75      H        0.49430    0.45580    0.00140    1.000
    C95      C        0.54990    0.48530    0.04700    1.000
    H76      H        0.55580    0.46110    0.08650    1.000
    C96      C        0.41360    0.53670    0.76250    1.000
    H77      H        0.40020    0.56250    0.73530    1.000
    C97      C        0.44790    0.54460    0.82230    1.000
    H78      H        0.45760    0.57520    0.83330    1.000
    C98      C        0.46780    0.50740    0.86540    1.000
    C99      C        0.45110    0.46300    0.84630    1.000
    H79      H        0.46300    0.43680    0.87430    1.000
    C100     C        0.41750    0.45730    0.78740    1.000
    H80      H        0.40690    0.42690    0.77770    1.000
    Cu7      Cu       0.31631    0.80447    0.94296    1.000
    Cu8      Cu       0.68427    0.83590    0.86157    1.000
    Cu9      Cu       0.86538    0.52173    0.62619    1.000
    N21      N        0.38330    0.80870    0.92480    1.000
    N22      N        0.61760    0.83280    0.87920    1.000
    N23      N        0.71000    0.89770    0.89660    1.000
    N24      N        0.79040    0.13180    0.92740    1.000
    N25      N        0.71850    0.78600    0.80040    1.000
    N26      N        0.83130    0.58340    0.64270    1.000
    N27      N        0.82850    0.46490    0.59140    1.000
    N28      N        0.71800    0.25050    0.48190    1.000
    N29      N        0.92220    0.52310    0.54530    1.000
    N30      N        0.10110    0.49240    0.24270    1.000
    C101     C        0.40230    0.82300    0.84950    1.000
    H81      H        0.38340    0.83070    0.80320    1.000
    C102     C        0.44770    0.82700    0.83640    1.000
    H82      H        0.45890    0.83620    0.78220    1.000
    C103     C        0.47550    0.81750    0.90360    1.000
    C104     C        0.45650    0.80310    0.98380    1.000
    H83      H        0.47460    0.79610    0.03160    1.000
    C105     C        0.41060    0.79960    0.99010    1.000
    H84      H        0.39830    0.79040    0.04340    1.000
    C106     C        0.59130    0.82740    0.80910    1.000
    H85      H        0.60420    0.82770    0.75370    1.000
    C107     C        0.54580    0.82160    0.81640    1.000
    H86      H        0.52860    0.81720    0.76620    1.000
    C108     C        0.52540    0.82220    0.89780    1.000
    C109     C        0.55140    0.82920    0.96840    1.000
    H87      H        0.53870    0.83080    0.02400    1.000
    C110     C        0.59660    0.83370    0.95770    1.000
    H88      H        0.61410    0.83780    0.00760    1.000
    C111     C        0.68320    0.93120    0.93010    1.000
    H89      H        0.65400    0.92320    0.94510    1.000
    C112     C        0.69800    0.97920    0.94380    1.000
    H90      H        0.68000    0.00170    0.97070    1.000
    C113     C        0.74120    0.98970    0.91380    1.000
    C114     C        0.76810    0.95500    0.88290    1.000
    H91      H        0.79760    0.96130    0.86780    1.000
    C115     C        0.75090    0.91010    0.87410    1.000
    H92      H        0.76940    0.88700    0.85080    1.000
    C116     C        0.74710    0.12300    0.92790    1.000
    H93      H        0.72720    0.14810    0.93160    1.000
    C117     C        0.73040    0.07800    0.92330    1.000
    H94      H        0.69960    0.07330    0.92340    1.000
    C118     C        0.75820    0.04050    0.91850    1.000
    C119     C        0.80310    0.04840    0.92160    1.000
    H95      H        0.82310    0.02330    0.92050    1.000
    C120     C        0.81820    0.09340    0.92630    1.000
    H96      H        0.84890    0.09850    0.92890    1.000
    C121     C        0.76220    0.78110    0.80540    1.000
    H97      H        0.77820    0.80470    0.83390    1.000
    C122     C        0.78580    0.74360    0.77140    1.000
    H98      H        0.81690    0.74260    0.77560    1.000
    C123     C        0.76290    0.70760    0.73130    1.000
    C124     C        0.71610    0.71160    0.72950    1.000
    H99      H        0.69880    0.68750    0.70620    1.000
    C125     C        0.69640    0.75070    0.76180    1.000
    H100     H        0.66550    0.75330    0.75690    1.000
    C126     C        0.85210    0.62400    0.65200    1.000
    H101     H        0.88250    0.62530    0.63940    1.000
    C127     C        0.83130    0.66460    0.67940    1.000
    H102     H        0.84770    0.69240    0.68470    1.000
    C128     C        0.78620    0.66440    0.69910    1.000
    C129     C        0.76410    0.62220    0.68640    1.000
    H103     H        0.73360    0.62010    0.69750    1.000
    C130     C        0.78670    0.58370    0.65780    1.000
    H104     H        0.77070    0.55600    0.64810    1.000
    C131     C        0.84500    0.43340    0.53570    1.000
    H105     H        0.87200    0.44050    0.50820    1.000
    C132     C        0.82460    0.39060    0.51570    1.000
    H106     H        0.83930    0.36910    0.47980    1.000
    C133     C        0.78360    0.37980    0.54790    1.000
    C134     C        0.76710    0.41160    0.60480    1.000
    H107     H        0.74020    0.40510    0.63300    1.000
    C135     C        0.78920    0.45440    0.62300    1.000
    H108     H        0.77510    0.47620    0.65920    1.000
    C136     C        0.76110    0.25460    0.47350    1.000
    H109     H        0.77760    0.22890    0.45370    1.000
    C137     C        0.78350    0.29670    0.49350    1.000
    H110     H        0.81420    0.29890    0.48420    1.000
    C138     C        0.76080    0.33450    0.52640    1.000
    C139     C        0.71700    0.32940    0.53630    1.000
    H111     H        0.70010    0.35370    0.56040    1.000
    C140     C        0.69630    0.28720    0.51010    1.000
    H112     H        0.66520    0.28550    0.51310    1.000
    C141     C        0.93240    0.55490    0.48700    1.000
    H113     H        0.91520    0.58220    0.48610    1.000
    C142     C        0.96630    0.55150    0.42690    1.000
    H114     H        0.97010    0.57470    0.38460    1.000
    C143     C        0.99460    0.51330    0.42990    1.000
    C144     C        0.98630    0.48110    0.49400    1.000
    H115     H        0.00570    0.45580    0.50140    1.000
    C145     C        0.95010    0.48530    0.54700    1.000
    H116     H        0.94420    0.46110    0.58650    1.000
    C146     C        0.08640    0.53670    0.26250    1.000
    H117     H        0.09980    0.56250    0.23530    1.000
    C147     C        0.05210    0.54460    0.32230    1.000
    H118     H        0.04240    0.57520    0.33330    1.000
    C148     C        0.03220    0.50740    0.36540    1.000
    C149     C        0.04890    0.46300    0.34630    1.000
    H119     H        0.03700    0.43680    0.37430    1.000
    C150     C        0.08250    0.45730    0.28740    1.000
    H120     H        0.09310    0.42690    0.27770    1.000
    Cu10     Cu       0.68369    0.19553    0.44296    1.000
    Cu11     Cu       0.31573    0.16410    0.36157    1.000
    Cu12     Cu       0.13462    0.47827    0.12619    1.000
    N31      N        0.61670    0.19130    0.42480    1.000
    N32      N        0.38240    0.16720    0.37920    1.000
    N33      N        0.29000    0.10230    0.39660    1.000
    N34      N        0.20960    0.86820    0.42740    1.000
    N35      N        0.28150    0.21400    0.30040    1.000
    N36      N        0.16870    0.41660    0.14270    1.000
    N37      N        0.17150    0.53510    0.09140    1.000
    N38      N        0.28200    0.74950    0.98190    1.000
    N39      N        0.07780    0.47690    0.04530    1.000
    N40      N        0.89890    0.50760    0.74270    1.000
    C151     C        0.59770    0.17700    0.34950    1.000
    H121     H        0.61660    0.16930    0.30320    1.000
    C152     C        0.55230    0.17300    0.33640    1.000
    H122     H        0.54110    0.16380    0.28220    1.000
    C153     C        0.52450    0.18250    0.40360    1.000
    C154     C        0.54350    0.19690    0.48380    1.000
    H123     H        0.52540    0.20390    0.53160    1.000
    C155     C        0.58940    0.20040    0.49010    1.000
    H124     H        0.60170    0.20960    0.54340    1.000
    C156     C        0.40870    0.17260    0.30910    1.000
    H125     H        0.39580    0.17230    0.25370    1.000
    C157     C        0.45420    0.17840    0.31640    1.000
    H126     H        0.47140    0.18280    0.26620    1.000
    C158     C        0.47460    0.17780    0.39780    1.000
    C159     C        0.44860    0.17080    0.46840    1.000
    H127     H        0.46130    0.16920    0.52400    1.000
    C160     C        0.40340    0.16630    0.45770    1.000
    H128     H        0.38590    0.16220    0.50760    1.000
    C161     C        0.31680    0.06880    0.43010    1.000
    H129     H        0.34600    0.07680    0.44510    1.000
    C162     C        0.30200    0.02080    0.44380    1.000
    H130     H        0.32000    0.99830    0.47070    1.000
    C163     C        0.25880    0.01030    0.41380    1.000
    C164     C        0.23190    0.04500    0.38290    1.000
    H131     H        0.20240    0.03870    0.36780    1.000
    C165     C        0.24910    0.08990    0.37410    1.000
    H132     H        0.23060    0.11300    0.35080    1.000
    C166     C        0.25290    0.87700    0.42790    1.000
    H133     H        0.27280    0.85190    0.43160    1.000
    C167     C        0.26960    0.92200    0.42330    1.000
    H134     H        0.30040    0.92670    0.42340    1.000
    C168     C        0.24180    0.95950    0.41850    1.000
    C169     C        0.19690    0.95160    0.42160    1.000
    H135     H        0.17690    0.97670    0.42050    1.000
    C170     C        0.18180    0.90660    0.42630    1.000
    H136     H        0.15110    0.90150    0.42890    1.000
    C171     C        0.23780    0.21890    0.30540    1.000
    H137     H        0.22180    0.19530    0.33390    1.000
    C172     C        0.21420    0.25640    0.27140    1.000
    H138     H        0.18310    0.25740    0.27560    1.000
    C173     C        0.23710    0.29240    0.23130    1.000
    C174     C        0.28390    0.28840    0.22950    1.000
    H139     H        0.30120    0.31250    0.20620    1.000
    C175     C        0.30360    0.24930    0.26180    1.000
    H140     H        0.33450    0.24670    0.25690    1.000
    C176     C        0.14790    0.37600    0.15200    1.000
    H141     H        0.11750    0.37470    0.13940    1.000
    C177     C        0.16870    0.33540    0.17940    1.000
    H142     H        0.15230    0.30760    0.18470    1.000
    C178     C        0.21380    0.33560    0.19910    1.000
    C179     C        0.23590    0.37780    0.18640    1.000
    H143     H        0.26640    0.37990    0.19750    1.000
    C180     C        0.21330    0.41630    0.15780    1.000
    H144     H        0.22930    0.44400    0.14810    1.000
    C181     C        0.15500    0.56660    0.03570    1.000
    H145     H        0.12800    0.55950    0.00820    1.000
    C182     C        0.17540    0.60940    0.01570    1.000
    H146     H        0.16070    0.63090    0.97980    1.000
    C183     C        0.21640    0.62020    0.04790    1.000
    C184     C        0.23290    0.58840    0.10480    1.000
    H147     H        0.25980    0.59490    0.13300    1.000
    C185     C        0.21080    0.54560    0.12300    1.000
    H148     H        0.22490    0.52380    0.15920    1.000
    C186     C        0.23890    0.74540    0.97350    1.000
    H149     H        0.22240    0.77110    0.95370    1.000
    C187     C        0.21650    0.70330    0.99350    1.000
    H150     H        0.18580    0.70110    0.98420    1.000
    C188     C        0.23920    0.66550    0.02640    1.000
    C189     C        0.28300    0.67060    0.03630    1.000
    H151     H        0.29990    0.64630    0.06040    1.000
    C190     C        0.30370    0.71280    0.01010    1.000
    H152     H        0.33480    0.71450    0.01310    1.000
    C191     C        0.06760    0.44510    0.98700    1.000
    H153     H        0.08480    0.41780    0.98610    1.000
    C192     C        0.03370    0.44850    0.92690    1.000
    H154     H        0.02990    0.42530    0.88460    1.000
    C193     C        0.00540    0.48670    0.92990    1.000
    C194     C        0.01370    0.51890    0.99400    1.000
    H155     H        0.99430    0.54420    0.00140    1.000
    C195     C        0.04990    0.51470    0.04700    1.000
    H156     H        0.05580    0.53890    0.08650    1.000
    C196     C        0.91360    0.46330    0.76250    1.000
    H157     H        0.90020    0.43750    0.73530    1.000
    C197     C        0.94790    0.45540    0.82230    1.000
    H158     H        0.95760    0.42480    0.83330    1.000
    C198     C        0.96780    0.49260    0.86540    1.000
    C199     C        0.95110    0.53700    0.84630    1.000
    H159     H        0.96300    0.56320    0.87430    1.000
    C200     C        0.91750    0.54270    0.78740    1.000
    H160     H        0.90690    0.57310    0.77770    1.000
    Cu13     Cu       0.67043    0.33158    0.32050    1.000
    Cu14     Cu       0.30652    0.31330    0.45730    1.000
    Cu15     Cu       0.13396    0.98442    0.65799    1.000
    N41      N        0.60560    0.32520    0.35150    1.000
    N42      N        0.37200    0.31010    0.43090    1.000
    N43      N        0.28120    0.37570    0.42990    1.000
    N44      N        0.19590    0.60470    0.34920    1.000
    N45      N        0.27410    0.25990    0.50690    1.000
    N46      N        0.16810    0.04570    0.62880    1.000
    N47      N        0.10490    0.99270    0.78090    1.000
    N48      N        0.92330    0.01350    0.07980    1.000
    N49      N        0.16890    0.92310    0.65460    1.000
    N50      N        0.29370    0.71930    0.76460    1.000
    C201     C        0.57680    0.31600    0.28580    1.000
    H161     H        0.58790    0.31400    0.22890    1.000
    C202     C        0.53070    0.30930    0.29970    1.000
    H162     H        0.51240    0.30000    0.25360    1.000
    C203     C        0.51260    0.31660    0.38250    1.000
    C204     C        0.54220    0.32820    0.44860    1.000
    H163     H        0.53180    0.33270    0.50530    1.000
    C205     C        0.58680    0.33300    0.43090    1.000
    H164     H        0.60550    0.34230    0.47640    1.000
    C206     C        0.38880    0.32330    0.35140    1.000
    H165     H        0.36890    0.33170    0.30740    1.000
    C207     C        0.43410    0.32460    0.33320    1.000
    H166     H        0.44390    0.33340    0.27780    1.000
    C208     C        0.46460    0.31300    0.39710    1.000
    C209     C        0.44770    0.29830    0.47820    1.000
    H167     H        0.46720    0.28960    0.52290    1.000
    C210     C        0.40260    0.29680    0.49150    1.000
    H168     H        0.39220    0.28590    0.54530    1.000
    C211     C        0.30710    0.41380    0.41870    1.000
    H169     H        0.33780    0.40950    0.42450    1.000
    C212     C        0.29320    0.45670    0.40030    1.000
    H170     H        0.31350    0.48040    0.38670    1.000
    C213     C        0.24630    0.46600    0.40170    1.000
    C214     C        0.21920    0.43010    0.41990    1.000
    H171     H        0.18840    0.43440    0.42230    1.000
    C215     C        0.23780    0.38650    0.43510    1.000
    H172     H        0.21830    0.36230    0.45040    1.000
    C216     C        0.17090    0.57200    0.39280    1.000
    H173     H        0.14190    0.58010    0.40930    1.000
    C217     C        0.18600    0.52770    0.41360    1.000
    H174     H        0.16850    0.50700    0.44600    1.000
    C218     C        0.22890    0.51450    0.38450    1.000
    C219     C        0.25380    0.54870    0.34600    1.000
    H175     H        0.28360    0.54280    0.33240    1.000
    C220     C        0.23560    0.59200    0.32660    1.000
    H176     H        0.25310    0.61340    0.29540    1.000
    C221     C        0.22880    0.25390    0.50110    1.000
    H177     H        0.21180    0.27830    0.47740    1.000
    C222     C        0.20750    0.21430    0.52800    1.000
    H178     H        0.17640    0.21260    0.52470    1.000
    C223     C        0.23130    0.17620    0.56030    1.000
    C224     C        0.27650    0.18170    0.56880    1.000
    H179     H        0.29370    0.15800    0.59430    1.000
    C225     C        0.29720    0.22400    0.53800    1.000
    H180     H        0.32830    0.22630    0.54000    1.000
    C226     C        0.14990    0.07600    0.57140    1.000
    H181     H        0.12300    0.06790    0.54480    1.000
    C227     C        0.16910    0.11820    0.55040    1.000
    H182     H        0.15470    0.13880    0.51230    1.000
    C228     C        0.20970    0.13030    0.58550    1.000
    C229     C        0.22810    0.10020    0.64280    1.000
    H183     H        0.25540    0.10750    0.66870    1.000
    C230     C        0.20700    0.05860    0.66360    1.000
    H184     H        0.22060    0.03850    0.70370    1.000
    C231     C        0.09050    0.03500    0.80470    1.000
    H185     H        0.10360    0.06160    0.78030    1.000
    C232     C        0.05640    0.04040    0.86490    1.000
    H186     H        0.04640    0.07060    0.87840    1.000
    C233     C        0.03650    0.00130    0.90630    1.000
    C234     C        0.05350    0.95720    0.88280    1.000
    H187     H        0.04270    0.92990    0.90930    1.000
    C235     C        0.08620    0.95460    0.82050    1.000
    H188     H        0.09640    0.92490    0.80420    1.000
    C236     C        0.93230    0.04520    0.01860    1.000
    H189     H        0.91360    0.07150    0.01660    1.000
    C237     C        0.96580    0.04350    0.95840    1.000
    H190     H        0.96790    0.06590    0.91400    1.000
    C238     C        0.99810    0.00550    0.96590    1.000
    C239     C        0.99100    0.97400    0.03190    1.000
    H191     H        0.01130    0.94940    0.04010    1.000
    C240     C        0.95430    0.97770    0.08710    1.000
    H192     H        0.95040    0.95520    0.13070    1.000
    C241     C        0.14910    0.88150    0.65850    1.000
    H193     H        0.11830    0.87980    0.65060    1.000
    C242     C        0.17290    0.83990    0.67400    1.000
    H194     H        0.15760    0.81140    0.67680    1.000
    C243     C        0.21950    0.84060    0.68550    1.000
    C244     C        0.24000    0.88530    0.67870    1.000
    H195     H        0.27070    0.88850    0.68560    1.000
    C245     C        0.21370    0.92390    0.66170    1.000
    H196     H        0.22800    0.95280    0.65450    1.000
    C246     C        0.24940    0.72070    0.76600    1.000
    H197     H        0.23440    0.69430    0.78700    1.000
    C247     C        0.22440    0.75790    0.73890    1.000
    H198     H        0.19330    0.75570    0.73950    1.000
    C248     C        0.24370    0.79750    0.71150    1.000
    C249     C        0.29020    0.79640    0.70940    1.000
    H199     H        0.30610    0.82260    0.69020    1.000
    C250     C        0.31270    0.75670    0.73560    1.000
    H200     H        0.34380    0.75690    0.73210    1.000
    Cu16     Cu       0.32957    0.66842    0.82050    1.000
    Cu17     Cu       0.69348    0.68670    0.95730    1.000
    Cu18     Cu       0.86604    0.01558    0.15799    1.000
    N51      N        0.39440    0.67480    0.85150    1.000
    N52      N        0.62800    0.68990    0.93090    1.000
    N53      N        0.71880    0.62430    0.92990    1.000
    N54      N        0.80410    0.39530    0.84920    1.000
    N55      N        0.72590    0.74010    0.00690    1.000
    N56      N        0.83190    0.95430    0.12880    1.000
    N57      N        0.89510    0.00730    0.28090    1.000
    N58      N        0.07670    0.98650    0.57980    1.000
    N59      N        0.83110    0.07690    0.15460    1.000
    N60      N        0.70630    0.28070    0.26460    1.000
    C251     C        0.42320    0.68400    0.78580    1.000
    H201     H        0.41210    0.68600    0.72890    1.000
    C252     C        0.46930    0.69070    0.79970    1.000
    H202     H        0.48760    0.70000    0.75360    1.000
    C253     C        0.48740    0.68340    0.88250    1.000
    C254     C        0.45780    0.67180    0.94860    1.000
    H203     H        0.46820    0.66730    0.00530    1.000
    C255     C        0.41320    0.66700    0.93090    1.000
    H204     H        0.39450    0.65770    0.97640    1.000
    C256     C        0.61120    0.67670    0.85140    1.000
    H205     H        0.63110    0.66830    0.80740    1.000
    C257     C        0.56590    0.67540    0.83320    1.000
    H206     H        0.55610    0.66660    0.77780    1.000
    C258     C        0.53540    0.68700    0.89710    1.000
    C259     C        0.55230    0.70170    0.97820    1.000
    H207     H        0.53280    0.71040    0.02290    1.000
    C260     C        0.59740    0.70320    0.99150    1.000
    H208     H        0.60780    0.71410    0.04530    1.000
    C261     C        0.69290    0.58620    0.91870    1.000
    H209     H        0.66220    0.59050    0.92450    1.000
    C262     C        0.70680    0.54330    0.90030    1.000
    H210     H        0.68650    0.51960    0.88670    1.000
    C263     C        0.75370    0.53400    0.90170    1.000
    C264     C        0.78080    0.56990    0.91990    1.000
    H211     H        0.81160    0.56560    0.92230    1.000
    C265     C        0.76220    0.61350    0.93510    1.000
    H212     H        0.78170    0.63770    0.95040    1.000
    C266     C        0.82910    0.42800    0.89280    1.000
    H213     H        0.85810    0.41990    0.90930    1.000
    C267     C        0.81400    0.47230    0.91360    1.000
    H214     H        0.83150    0.49300    0.94600    1.000
    C268     C        0.77110    0.48550    0.88450    1.000
    C269     C        0.74620    0.45130    0.84600    1.000
    H215     H        0.71640    0.45720    0.83240    1.000
    C270     C        0.76440    0.40800    0.82660    1.000
    H216     H        0.74690    0.38660    0.79540    1.000
    C271     C        0.77120    0.74610    0.00110    1.000
    H217     H        0.78820    0.72170    0.97740    1.000
    C272     C        0.79250    0.78570    0.02800    1.000
    H218     H        0.82360    0.78740    0.02470    1.000
    C273     C        0.76870    0.82380    0.06030    1.000
    C274     C        0.72350    0.81830    0.06880    1.000
    H219     H        0.70630    0.84200    0.09430    1.000
    C275     C        0.70280    0.77600    0.03800    1.000
    H220     H        0.67170    0.77370    0.04000    1.000
    C276     C        0.85010    0.92400    0.07140    1.000
    H221     H        0.87700    0.93210    0.04480    1.000
    C277     C        0.83090    0.88180    0.05040    1.000
    H222     H        0.84530    0.86120    0.01230    1.000
    C278     C        0.79030    0.86970    0.08550    1.000
    C279     C        0.77190    0.89980    0.14280    1.000
    H223     H        0.74460    0.89250    0.16870    1.000
    C280     C        0.79300    0.94140    0.16360    1.000
    H224     H        0.77940    0.96150    0.20370    1.000
    C281     C        0.90950    0.96500    0.30470    1.000
    H225     H        0.89640    0.93840    0.28030    1.000
    C282     C        0.94360    0.95960    0.36490    1.000
    H226     H        0.95360    0.92940    0.37840    1.000
    C283     C        0.96350    0.99870    0.40630    1.000
    C284     C        0.94650    0.04280    0.38280    1.000
    H227     H        0.95730    0.07010    0.40930    1.000
    C285     C        0.91380    0.04540    0.32050    1.000
    H228     H        0.90360    0.07510    0.30420    1.000
    C286     C        0.06770    0.95480    0.51860    1.000
    H229     H        0.08640    0.92850    0.51660    1.000
    C287     C        0.03420    0.95650    0.45840    1.000
    H230     H        0.03210    0.93410    0.41400    1.000
    C288     C        0.00190    0.99450    0.46590    1.000
    C289     C        0.00900    0.02600    0.53190    1.000
    H231     H        0.98870    0.05060    0.54010    1.000
    C290     C        0.04570    0.02230    0.58710    1.000
    H232     H        0.04960    0.04480    0.63070    1.000
    C291     C        0.85090    0.11850    0.15850    1.000
    H233     H        0.88170    0.12020    0.15060    1.000
    C292     C        0.82710    0.16010    0.17400    1.000
    H234     H        0.84240    0.18860    0.17680    1.000
    C293     C        0.78050    0.15940    0.18550    1.000
    C294     C        0.76000    0.11470    0.17870    1.000
    H235     H        0.72930    0.11150    0.18560    1.000
    C295     C        0.78630    0.07610    0.16170    1.000
    H236     H        0.77200    0.04720    0.15450    1.000
    C296     C        0.75060    0.27930    0.26600    1.000
    H237     H        0.76560    0.30570    0.28700    1.000
    C297     C        0.77560    0.24210    0.23890    1.000
    H238     H        0.80670    0.24430    0.23950    1.000
    C298     C        0.75630    0.20250    0.21150    1.000
    C299     C        0.70980    0.20360    0.20940    1.000
    H239     H        0.69390    0.17740    0.19020    1.000
    C300     C        0.68730    0.24330    0.23560    1.000
    H240     H        0.65620    0.24310    0.23210    1.000
    Cu19     Cu       0.17043    0.66842    0.32050    1.000
    Cu20     Cu       0.80652    0.68670    0.45730    1.000
    Cu21     Cu       0.63396    0.01558    0.65799    1.000
    N61      N        0.10560    0.67480    0.35150    1.000
    N62      N        0.87200    0.68990    0.43090    1.000
    N63      N        0.78120    0.62430    0.42990    1.000
    N64      N        0.69590    0.39530    0.34920    1.000
    N65      N        0.77410    0.74010    0.50690    1.000
    N66      N        0.66810    0.95430    0.62880    1.000
    N67      N        0.60490    0.00730    0.78090    1.000
    N68      N        0.42330    0.98650    0.07980    1.000
    N69      N        0.66890    0.07690    0.65460    1.000
    N70      N        0.79370    0.28070    0.76460    1.000
    C301     C        0.07680    0.68400    0.28580    1.000
    H241     H        0.08790    0.68600    0.22890    1.000
    C302     C        0.03070    0.69070    0.29970    1.000
    H242     H        0.01240    0.70000    0.25360    1.000
    C303     C        0.01260    0.68340    0.38250    1.000
    C304     C        0.04220    0.67180    0.44860    1.000
    H243     H        0.03180    0.66730    0.50530    1.000
    C305     C        0.08680    0.66700    0.43090    1.000
    H244     H        0.10550    0.65770    0.47640    1.000
    C306     C        0.88880    0.67670    0.35140    1.000
    H245     H        0.86890    0.66830    0.30740    1.000
    C307     C        0.93410    0.67540    0.33320    1.000
    H246     H        0.94390    0.66660    0.27780    1.000
    C308     C        0.96460    0.68700    0.39710    1.000
    C309     C        0.94770    0.70170    0.47820    1.000
    H247     H        0.96720    0.71040    0.52290    1.000
    C310     C        0.90260    0.70320    0.49150    1.000
    H248     H        0.89220    0.71410    0.54530    1.000
    C311     C        0.80710    0.58620    0.41870    1.000
    H249     H        0.83780    0.59050    0.42450    1.000
    C312     C        0.79320    0.54330    0.40030    1.000
    H250     H        0.81350    0.51960    0.38670    1.000
    C313     C        0.74630    0.53400    0.40170    1.000
    C314     C        0.71920    0.56990    0.41990    1.000
    H251     H        0.68840    0.56560    0.42230    1.000
    C315     C        0.73780    0.61350    0.43510    1.000
    H252     H        0.71830    0.63770    0.45040    1.000
    C316     C        0.67090    0.42800    0.39280    1.000
    H253     H        0.64190    0.41990    0.40930    1.000
    C317     C        0.68600    0.47230    0.41360    1.000
    H254     H        0.66850    0.49300    0.44600    1.000
    C318     C        0.72890    0.48550    0.38450    1.000
    C319     C        0.75380    0.45130    0.34600    1.000
    H255     H        0.78360    0.45720    0.33240    1.000
    C320     C        0.73560    0.40800    0.32660    1.000
    H256     H        0.75310    0.38660    0.29540    1.000
    C321     C        0.72880    0.74610    0.50110    1.000
    H257     H        0.71180    0.72170    0.47740    1.000
    C322     C        0.70750    0.78570    0.52800    1.000
    H258     H        0.67640    0.78740    0.52470    1.000
    C323     C        0.73130    0.82380    0.56030    1.000
    C324     C        0.77650    0.81830    0.56880    1.000
    H259     H        0.79370    0.84200    0.59430    1.000
    C325     C        0.79720    0.77600    0.53800    1.000
    H260     H        0.82830    0.77370    0.54000    1.000
    C326     C        0.64990    0.92400    0.57140    1.000
    H261     H        0.62300    0.93210    0.54480    1.000
    C327     C        0.66910    0.88180    0.55040    1.000
    H262     H        0.65470    0.86120    0.51230    1.000
    C328     C        0.70970    0.86970    0.58550    1.000
    C329     C        0.72810    0.89980    0.64280    1.000
    H263     H        0.75540    0.89250    0.66870    1.000
    C330     C        0.70700    0.94140    0.66360    1.000
    H264     H        0.72060    0.96150    0.70370    1.000
    C331     C        0.59050    0.96500    0.80470    1.000
    H265     H        0.60360    0.93840    0.78030    1.000
    C332     C        0.55640    0.95960    0.86490    1.000
    H266     H        0.54640    0.92940    0.87840    1.000
    C333     C        0.53650    0.99870    0.90630    1.000
    C334     C        0.55350    0.04280    0.88280    1.000
    H267     H        0.54270    0.07010    0.90930    1.000
    C335     C        0.58620    0.04540    0.82050    1.000
    H268     H        0.59640    0.07510    0.80420    1.000
    C336     C        0.43230    0.95480    0.01860    1.000
    H269     H        0.41360    0.92850    0.01660    1.000
    C337     C        0.46580    0.95650    0.95840    1.000
    H270     H        0.46790    0.93410    0.91400    1.000
    C338     C        0.49810    0.99450    0.96590    1.000
    C339     C        0.49100    0.02600    0.03190    1.000
    H271     H        0.51130    0.05060    0.04010    1.000
    C340     C        0.45430    0.02230    0.08710    1.000
    H272     H        0.45040    0.04480    0.13070    1.000
    C341     C        0.64910    0.11850    0.65850    1.000
    H273     H        0.61830    0.12020    0.65060    1.000
    C342     C        0.67290    0.16010    0.67400    1.000
    H274     H        0.65760    0.18860    0.67680    1.000
    C343     C        0.71950    0.15940    0.68550    1.000
    C344     C        0.74000    0.11470    0.67870    1.000
    H275     H        0.77070    0.11150    0.68560    1.000
    C345     C        0.71370    0.07610    0.66170    1.000
    H276     H        0.72800    0.04720    0.65450    1.000
    C346     C        0.74940    0.27930    0.76600    1.000
    H277     H        0.73440    0.30570    0.78700    1.000
    C347     C        0.72440    0.24210    0.73890    1.000
    H278     H        0.69330    0.24430    0.73950    1.000
    C348     C        0.74370    0.20250    0.71150    1.000
    C349     C        0.79020    0.20360    0.70940    1.000
    H279     H        0.80610    0.17740    0.69020    1.000
    C350     C        0.81270    0.24330    0.73560    1.000
    H280     H        0.84380    0.24310    0.73210    1.000
    Cu22     Cu       0.82957    0.33158    0.82050    1.000
    Cu23     Cu       0.19348    0.31330    0.95730    1.000
    Cu24     Cu       0.36604    0.98442    0.15799    1.000
    N71      N        0.89440    0.32520    0.85150    1.000
    N72      N        0.12800    0.31010    0.93090    1.000
    N73      N        0.21880    0.37570    0.92990    1.000
    N74      N        0.30410    0.60470    0.84920    1.000
    N75      N        0.22590    0.25990    0.00690    1.000
    N76      N        0.33190    0.04570    0.12880    1.000
    N77      N        0.39510    0.99270    0.28090    1.000
    N78      N        0.57670    0.01350    0.57980    1.000
    N79      N        0.33110    0.92310    0.15460    1.000
    N80      N        0.20630    0.71930    0.26460    1.000
    C351     C        0.92320    0.31600    0.78580    1.000
    H281     H        0.91210    0.31400    0.72890    1.000
    C352     C        0.96930    0.30930    0.79970    1.000
    H282     H        0.98760    0.30000    0.75360    1.000
    C353     C        0.98740    0.31660    0.88250    1.000
    C354     C        0.95780    0.32820    0.94860    1.000
    H283     H        0.96820    0.33270    0.00530    1.000
    C355     C        0.91320    0.33300    0.93090    1.000
    H284     H        0.89450    0.34230    0.97640    1.000
    C356     C        0.11120    0.32330    0.85140    1.000
    H285     H        0.13110    0.33170    0.80740    1.000
    C357     C        0.06590    0.32460    0.83320    1.000
    H286     H        0.05610    0.33340    0.77780    1.000
    C358     C        0.03540    0.31300    0.89710    1.000
    C359     C        0.05230    0.29830    0.97820    1.000
    H287     H        0.03280    0.28960    0.02290    1.000
    C360     C        0.09740    0.29680    0.99150    1.000
    H288     H        0.10780    0.28590    0.04530    1.000
    C361     C        0.19290    0.41380    0.91870    1.000
    H289     H        0.16220    0.40950    0.92450    1.000
    C362     C        0.20680    0.45670    0.90030    1.000
    H290     H        0.18650    0.48040    0.88670    1.000
    C363     C        0.25370    0.46600    0.90170    1.000
    C364     C        0.28080    0.43010    0.91990    1.000
    H291     H        0.31160    0.43440    0.92230    1.000
    C365     C        0.26220    0.38650    0.93510    1.000
    H292     H        0.28170    0.36230    0.95040    1.000
    C366     C        0.32910    0.57200    0.89280    1.000
    H293     H        0.35810    0.58010    0.90930    1.000
    C367     C        0.31400    0.52770    0.91360    1.000
    H294     H        0.33150    0.50700    0.94600    1.000
    C368     C        0.27110    0.51450    0.88450    1.000
    C369     C        0.24620    0.54870    0.84600    1.000
    H295     H        0.21640    0.54280    0.83240    1.000
    C370     C        0.26440    0.59200    0.82660    1.000
    H296     H        0.24690    0.61340    0.79540    1.000
    C371     C        0.27120    0.25390    0.00110    1.000
    H297     H        0.28820    0.27830    0.97740    1.000
    C372     C        0.29250    0.21430    0.02800    1.000
    H298     H        0.32360    0.21260    0.02470    1.000
    C373     C        0.26870    0.17620    0.06030    1.000
    C374     C        0.22350    0.18170    0.06880    1.000
    H299     H        0.20630    0.15800    0.09430    1.000
    C375     C        0.20280    0.22400    0.03800    1.000
    H300     H        0.17170    0.22630    0.04000    1.000
    C376     C        0.35010    0.07600    0.07140    1.000
    H301     H        0.37700    0.06790    0.04480    1.000
    C377     C        0.33090    0.11820    0.05040    1.000
    H302     H        0.34530    0.13880    0.01230    1.000
    C378     C        0.29030    0.13030    0.08550    1.000
    C379     C        0.27190    0.10020    0.14280    1.000
    H303     H        0.24460    0.10750    0.16870    1.000
    C380     C        0.29300    0.05860    0.16360    1.000
    H304     H        0.27940    0.03850    0.20370    1.000
    C381     C        0.40950    0.03500    0.30470    1.000
    H305     H        0.39640    0.06160    0.28030    1.000
    C382     C        0.44360    0.04040    0.36490    1.000
    H306     H        0.45360    0.07060    0.37840    1.000
    C383     C        0.46350    0.00130    0.40630    1.000
    C384     C        0.44650    0.95720    0.38280    1.000
    H307     H        0.45730    0.92990    0.40930    1.000
    C385     C        0.41380    0.95460    0.32050    1.000
    H308     H        0.40360    0.92490    0.30420    1.000
    C386     C        0.56770    0.04520    0.51860    1.000
    H309     H        0.58640    0.07150    0.51660    1.000
    C387     C        0.53420    0.04350    0.45840    1.000
    H310     H        0.53210    0.06590    0.41400    1.000
    C388     C        0.50190    0.00550    0.46590    1.000
    C389     C        0.50900    0.97400    0.53190    1.000
    H311     H        0.48870    0.94940    0.54010    1.000
    C390     C        0.54570    0.97770    0.58710    1.000
    H312     H        0.54960    0.95520    0.63070    1.000
    C391     C        0.35090    0.88150    0.15850    1.000
    H313     H        0.38170    0.87980    0.15060    1.000
    C392     C        0.32710    0.83990    0.17400    1.000
    H314     H        0.34240    0.81140    0.17680    1.000
    C393     C        0.28050    0.84060    0.18550    1.000
    C394     C        0.26000    0.88530    0.17870    1.000
    H315     H        0.22930    0.88850    0.18560    1.000
    C395     C        0.28630    0.92390    0.16170    1.000
    H316     H        0.27200    0.95280    0.15450    1.000
    C396     C        0.25060    0.72070    0.26600    1.000
    H317     H        0.26560    0.69430    0.28700    1.000
    C397     C        0.27560    0.75790    0.23890    1.000
    H318     H        0.30670    0.75570    0.23950    1.000
    C398     C        0.25630    0.79750    0.21150    1.000
    C399     C        0.20980    0.79640    0.20940    1.000
    H319     H        0.19390    0.82260    0.19020    1.000
    C400     C        0.18730    0.75670    0.23560    1.000
    H320     H        0.15620    0.75690    0.23210    1.000
