# CIF file generated by openbabel 3.1.0, see https://openbabel.org
data_I
_chemical_name_common 'image0'
_cell_length_a 31.473
_cell_length_b 31.473
_cell_length_c 62.316
_cell_angle_alpha 90
_cell_angle_beta 90
_cell_angle_gamma 120
_space_group_name_H-M_alt 'P 1'
_space_group_name_Hall 'P 1'
loop_
    _symmetry_equiv_pos_as_xyz
    x,y,z
loop_
    _atom_site_label
    _atom_site_type_symbol
    _atom_site_fract_x
    _atom_site_fract_y
    _atom_site_fract_z
    _atom_site_occupancy
    Co1      Co       0.51198    0.48788    0.36289    1.000
    Co2      Co       0.48029    0.51956    0.40124    1.000
    Zn1      Zn       0.40079    0.70042    0.54393    1.000
    B1       B        0.54470    0.45380    0.32350    1.000
    O1       O        0.51230    0.41040    0.33525    1.000
    N1       N        0.49160    0.41640    0.35345    1.000
    C1       C        0.45930    0.37500    0.36096    1.000
    H1       H        0.45440    0.34640    0.35370    1.000
    C2       C        0.42930    0.36820    0.37970    1.000
    C3       C        0.43420    0.40740    0.39277    1.000
    C4       C        0.40350    0.39470    0.41140    1.000
    C5       C        0.36750    0.34550    0.41515    1.000
    H2       H        0.34740    0.33770    0.42750    1.000
    C6       C        0.36050    0.30820    0.40133    1.000
    C7       C        0.39170    0.32050    0.38401    1.000
    H3       H        0.38740    0.29510    0.37450    1.000
    C8       C        0.40720    0.43050    0.42660    1.000
    H4       H        0.38850    0.41790    0.43940    1.000
    N2       N        0.43230    0.47650    0.42520    1.000
    O2       O        0.42480    0.49930    0.44246    1.000
    B2       B        0.44820    0.55280    0.44121    1.000
    O3       O        0.51810    0.47940    0.31539    1.000
    N3       N        0.50050    0.49710    0.33081    1.000
    C9       C        0.47890    0.51810    0.32240    1.000
    H5       H        0.47690    0.51690    0.30720    1.000
    C10      C        0.45720    0.54340    0.33294    1.000
    C11      C        0.45550    0.54550    0.35585    1.000
    C12      C        0.43530    0.57310    0.36508    1.000
    C13      C        0.42250    0.60080    0.35134    1.000
    H6       H        0.41040    0.62020    0.35760    1.000
    C14      C        0.42660    0.60110    0.32919    1.000
    C15      C        0.44390    0.57160    0.32021    1.000
    H7       H        0.44670    0.57080    0.30510    1.000
    C16      C        0.42920    0.57610    0.38797    1.000
    H8       H        0.41430    0.59450    0.39230    1.000
    N4       N        0.44150    0.55710    0.40290    1.000
    O4       O        0.43080    0.56930    0.42270    1.000
    O5       O        0.58980    0.48830    0.33542    1.000
    N5       N        0.58370    0.50890    0.35305    1.000
    C17      C        0.62490    0.54190    0.36059    1.000
    H9       H        0.65340    0.54770    0.35290    1.000
    C18      C        0.63240    0.57110    0.37954    1.000
    C19      C        0.59290    0.56540    0.39301    1.000
    C20      C        0.60550    0.59770    0.41093    1.000
    C21      C        0.65400    0.63310    0.41428    1.000
    H10      H        0.66120    0.65450    0.42620    1.000
    C22      C        0.69300    0.63940    0.40146    1.000
    C23      C        0.68060    0.60760    0.38423    1.000
    H11      H        0.70620    0.61070    0.37510    1.000
    C24      C        0.56970    0.59600    0.42610    1.000
    H12      H        0.58200    0.61750    0.43810    1.000
    N6       N        0.52380    0.56890    0.42489    1.000
    O6       O        0.50180    0.57750    0.44223    1.000
    C25      C        0.43080    0.56840    0.46230    1.000
    C26      C        0.38660    0.53830    0.47216    1.000
    H13      H        0.36610    0.50630    0.46650    1.000
    C27      C        0.37080    0.55290    0.48996    1.000
    H14      H        0.33970    0.53150    0.49610    1.000
    C28      C        0.40060    0.59890    0.49870    1.000
    C29      C        0.44570    0.62910    0.48964    1.000
    H15      H        0.46670    0.66050    0.49570    1.000
    C30      C        0.46060    0.61410    0.47169    1.000
    H16      H        0.49190    0.63550    0.46560    1.000
    O7       O        0.46630    0.45150    0.38911    1.000
    C31      C        0.31910    0.25540    0.40540    1.000
    C32      C        0.30490    0.22130    0.38640    1.000
    H17      H        0.33430    0.22280    0.38030    1.000
    H18      H        0.28200    0.18770    0.39110    1.000
    H19      H        0.28920    0.23130    0.37550    1.000
    C33      C        0.27360    0.25250    0.41440    1.000
    H20      H        0.28220    0.27440    0.42680    1.000
    H21      H        0.25800    0.26230    0.40340    1.000
    H22      H        0.25080    0.21870    0.41890    1.000
    C34      C        0.34060    0.23840    0.42370    1.000
    H23      H        0.37070    0.23960    0.41870    1.000
    H24      H        0.34800    0.26020    0.43610    1.000
    H25      H        0.31650    0.20480    0.42790    1.000
    O8       O        0.47450    0.52600    0.36811    1.000
    C35      C        0.41390    0.63290    0.31470    1.000
    C36      C        0.45500    0.66360    0.29960    1.000
    H26      H        0.46380    0.64240    0.29150    1.000
    H27      H        0.44460    0.68070    0.28970    1.000
    H28      H        0.48360    0.68760    0.30780    1.000
    C37      C        0.36870    0.59430    0.30150    1.000
    H29      H        0.34170    0.57410    0.31130    1.000
    H30      H        0.35840    0.61130    0.29150    1.000
    H31      H        0.37790    0.57330    0.29350    1.000
    C38      C        0.39900    0.66460    0.32780    1.000
    H32      H        0.37210    0.64370    0.33750    1.000
    H33      H        0.42710    0.68870    0.33620    1.000
    H34      H        0.38820    0.68180    0.31800    1.000
    O9       O        0.54830    0.53300    0.38894    1.000
    C39      C        0.74570    0.67880    0.40680    1.000
    C40      C        0.78170    0.69380    0.38900    1.000
    H35      H        0.77820    0.66460    0.38180    1.000
    H36      H        0.77580    0.71380    0.37870    1.000
    H37      H        0.81500    0.71300    0.39480    1.000
    C41      C        0.76340    0.65610    0.42420    1.000
    H38      H        0.74070    0.64550    0.43640    1.000
    H39      H        0.76440    0.62780    0.41830    1.000
    H40      H        0.79630    0.68070    0.42910    1.000
    C42      C        0.75120    0.72410    0.41790    1.000
    H41      H        0.72740    0.71420    0.42960    1.000
    H42      H        0.78450    0.74330    0.42370    1.000
    H43      H        0.74530    0.74400    0.40760    1.000
    C43      C        0.38310    0.61600    0.51757    1.000
    O10      O        0.34189    0.58680    0.52469    1.000
    O11      O        0.41289    0.65780    0.52460    1.000
    C44      C        0.56680    0.44240    0.30264    1.000
    C45      C        0.61080    0.44140    0.30345    1.000
    H44      H        0.62960    0.45150    0.31630    1.000
    C46      C        0.62800    0.42650    0.28645    1.000
    H45      H        0.65790    0.42620    0.28780    1.000
    C47      C        0.60180    0.41190    0.26732    1.000
    C48      C        0.55940    0.41480    0.26563    1.000
    H46      H        0.54150    0.40630    0.25250    1.000
    C49      C        0.54320    0.43010    0.28287    1.000
    H47      H        0.51440    0.43230    0.28120    1.000
    C50      C        0.62070    0.39540    0.24900    1.000
    O12      O        0.65690    0.39090    0.25223    1.000
    O13      O        0.60010    0.38830    0.23120    1.000
    C51      C        0.55940    0.43350    0.30304    1.000
    C52      C        0.56060    0.38960    0.30407    1.000
    H48      H        0.55130    0.37130    0.31700    1.000
    C53      C        0.57490    0.37210    0.28690    1.000
    H49      H        0.57580    0.34250    0.28820    1.000
    C54      C        0.58790    0.39820    0.26758    1.000
    C55      C        0.58420    0.43990    0.26582    1.000
    H50      H        0.59050    0.45640    0.25240    1.000
    C56      C        0.57140    0.45810    0.28346    1.000
    H51      H        0.57080    0.48790    0.28210    1.000
    C57      C        0.60630    0.38040    0.24950    1.000
    O14      O        0.61060    0.34400    0.25288    1.000
    O15      O        0.61350    0.40100    0.23150    1.000
    Co3      Co       0.17865    0.82121    0.69622    1.000
    Co4      Co       0.14696    0.85289    0.73457    1.000
    Zn2      Zn       0.06746    0.03375    0.87726    1.000
    B3       B        0.21137    0.78713    0.65683    1.000
    O16      O        0.17897    0.74373    0.66858    1.000
    N7       N        0.15827    0.74973    0.68678    1.000
    C58      C        0.12597    0.70833    0.69429    1.000
    H52      H        0.12107    0.67973    0.68703    1.000
    C59      C        0.09597    0.70153    0.71303    1.000
    C60      C        0.10087    0.74073    0.72610    1.000
    C61      C        0.07017    0.72803    0.74473    1.000
    C62      C        0.03417    0.67883    0.74848    1.000
    H53      H        0.01407    0.67103    0.76083    1.000
    C63      C        0.02717    0.64153    0.73466    1.000
    C64      C        0.05837    0.65383    0.71734    1.000
    H54      H        0.05407    0.62843    0.70783    1.000
    C65      C        0.07387    0.76383    0.75993    1.000
    H55      H        0.05517    0.75123    0.77273    1.000
    N8       N        0.09897    0.80983    0.75853    1.000
    O17      O        0.09147    0.83263    0.77579    1.000
    B4       B        0.11487    0.88613    0.77454    1.000
    O18      O        0.18477    0.81273    0.64872    1.000
    N9       N        0.16717    0.83043    0.66414    1.000
    C66      C        0.14557    0.85143    0.65573    1.000
    H56      H        0.14357    0.85023    0.64053    1.000
    C67      C        0.12387    0.87673    0.66627    1.000
    C68      C        0.12217    0.87883    0.68918    1.000
    C69      C        0.10197    0.90643    0.69841    1.000
    C70      C        0.08917    0.93413    0.68467    1.000
    H57      H        0.07707    0.95353    0.69093    1.000
    C71      C        0.09327    0.93443    0.66252    1.000
    C72      C        0.11057    0.90493    0.65354    1.000
    H58      H        0.11337    0.90413    0.63843    1.000
    C73      C        0.09587    0.90943    0.72130    1.000
    H59      H        0.08097    0.92783    0.72563    1.000
    N10      N        0.10817    0.89043    0.73623    1.000
    O19      O        0.09747    0.90263    0.75603    1.000
    O20      O        0.25647    0.82163    0.66875    1.000
    N11      N        0.25037    0.84223    0.68638    1.000
    C74      C        0.29157    0.87523    0.69392    1.000
    H60      H        0.32007    0.88103    0.68623    1.000
    C75      C        0.29907    0.90443    0.71287    1.000
    C76      C        0.25957    0.89873    0.72634    1.000
    C77      C        0.27217    0.93103    0.74426    1.000
    C78      C        0.32067    0.96643    0.74761    1.000
    H61      H        0.32787    0.98783    0.75953    1.000
    C79      C        0.35967    0.97273    0.73479    1.000
    C80      C        0.34727    0.94093    0.71756    1.000
    H62      H        0.37287    0.94403    0.70843    1.000
    C81      C        0.23637    0.92933    0.75943    1.000
    H63      H        0.24867    0.95083    0.77143    1.000
    N12      N        0.19047    0.90223    0.75822    1.000
    O21      O        0.16847    0.91083    0.77556    1.000
    C82      C        0.09747    0.90173    0.79563    1.000
    C83      C        0.05327    0.87163    0.80549    1.000
    H64      H        0.03277    0.83963    0.79983    1.000
    C84      C        0.03747    0.88623    0.82329    1.000
    H65      H        0.00637    0.86483    0.82943    1.000
    C85      C        0.06727    0.93223    0.83203    1.000
    C86      C        0.11237    0.96243    0.82297    1.000
    H66      H        0.13337    0.99383    0.82903    1.000
    C87      C        0.12727    0.94743    0.80502    1.000
    H67      H        0.15857    0.96883    0.79893    1.000
    O22      O        0.13297    0.78483    0.72244    1.000
    C88      C        0.98577    0.58873    0.73873    1.000
    C89      C        0.97157    0.55463    0.71973    1.000
    H68      H        0.00097    0.55613    0.71363    1.000
    H69      H        0.94867    0.52103    0.72443    1.000
    H70      H        0.95587    0.56463    0.70883    1.000
    C90      C        0.94027    0.58583    0.74773    1.000
    H71      H        0.94887    0.60773    0.76013    1.000
    H72      H        0.92467    0.59563    0.73673    1.000
    H73      H        0.91747    0.55203    0.75223    1.000
    C91      C        0.00727    0.57173    0.75703    1.000
    H74      H        0.03737    0.57293    0.75203    1.000
    H75      H        0.01467    0.59353    0.76943    1.000
    H76      H        0.98317    0.53813    0.76123    1.000
    O23      O        0.14117    0.85933    0.70144    1.000
    C92      C        0.08057    0.96623    0.64803    1.000
    C93      C        0.12167    0.99693    0.63293    1.000
    H77      H        0.13047    0.97573    0.62483    1.000
    H78      H        0.11127    0.01403    0.62303    1.000
    H79      H        0.15027    0.02093    0.64113    1.000
    C94      C        0.03537    0.92763    0.63483    1.000
    H80      H        0.00837    0.90743    0.64463    1.000
    H81      H        0.02507    0.94463    0.62483    1.000
    H82      H        0.04457    0.90663    0.62683    1.000
    C95      C        0.06567    0.99793    0.66113    1.000
    H83      H        0.03877    0.97703    0.67083    1.000
    H84      H        0.09377    0.02203    0.66953    1.000
    H85      H        0.05487    0.01513    0.65133    1.000
    O24      O        0.21497    0.86633    0.72227    1.000
    C96      C        0.41237    0.01213    0.74013    1.000
    C97      C        0.44837    0.02713    0.72233    1.000
    H86      H        0.44487    0.99793    0.71513    1.000
    H87      H        0.44247    0.04713    0.71203    1.000
    H88      H        0.48167    0.04633    0.72813    1.000
    C98      C        0.43007    0.98943    0.75753    1.000
    H89      H        0.40737    0.97883    0.76973    1.000
    H90      H        0.43107    0.96113    0.75163    1.000
    H91      H        0.46297    0.01403    0.76243    1.000
    C99      C        0.41787    0.05743    0.75123    1.000
    H92      H        0.39407    0.04753    0.76293    1.000
    H93      H        0.45117    0.07663    0.75703    1.000
    H94      H        0.41197    0.07733    0.74093    1.000
    C100     C        0.04977    0.94933    0.85090    1.000
    O25      O        0.00856    0.92013    0.85802    1.000
    O26      O        0.07956    0.99113    0.85793    1.000
    C101     C        0.23347    0.77573    0.63597    1.000
    C102     C        0.27747    0.77473    0.63678    1.000
    H95      H        0.29627    0.78483    0.64963    1.000
    C103     C        0.29467    0.75983    0.61978    1.000
    H96      H        0.32457    0.75953    0.62113    1.000
    C104     C        0.26847    0.74523    0.60065    1.000
    C105     C        0.22607    0.74813    0.59896    1.000
    H97      H        0.20817    0.73963    0.58583    1.000
    C106     C        0.20987    0.76343    0.61620    1.000
    H98      H        0.18107    0.76563    0.61453    1.000
    C107     C        0.28737    0.72873    0.58233    1.000
    O27      O        0.32357    0.72423    0.58556    1.000
    O28      O        0.26677    0.72163    0.56453    1.000
    C108     C        0.22607    0.76683    0.63637    1.000
    C109     C        0.22727    0.72293    0.63740    1.000
    H99      H        0.21797    0.70463    0.65033    1.000
    C110     C        0.24157    0.70543    0.62023    1.000
    H100     H        0.24247    0.67583    0.62153    1.000
    C111     C        0.25457    0.73153    0.60091    1.000
    C112     C        0.25087    0.77323    0.59915    1.000
    H101     H        0.25717    0.78973    0.58573    1.000
    C113     C        0.23807    0.79143    0.61679    1.000
    H102     H        0.23747    0.82123    0.61543    1.000
    C114     C        0.27297    0.71373    0.58283    1.000
    O29      O        0.27727    0.67733    0.58621    1.000
    O30      O        0.28017    0.73433    0.56483    1.000
    Co5      Co       0.84531    0.15455    0.02956    1.000
    Co6      Co       0.81362    0.18623    0.06791    1.000
    Zn3      Zn       0.73412    0.36709    0.21060    1.000
    B5       B        0.87803    0.12047    0.99017    1.000
    O31      O        0.84563    0.07707    0.00192    1.000
    N13      N        0.82493    0.08307    0.02012    1.000
    C115     C        0.79263    0.04167    0.02763    1.000
    H103     H        0.78773    0.01307    0.02037    1.000
    C116     C        0.76263    0.03487    0.04637    1.000
    C117     C        0.76753    0.07407    0.05944    1.000
    C118     C        0.73683    0.06137    0.07807    1.000
    C119     C        0.70083    0.01217    0.08182    1.000
    H104     H        0.68073    0.00437    0.09417    1.000
    C120     C        0.69383    0.97487    0.06800    1.000
    C121     C        0.72503    0.98717    0.05068    1.000
    H105     H        0.72073    0.96177    0.04117    1.000
    C122     C        0.74053    0.09717    0.09327    1.000
    H106     H        0.72183    0.08457    0.10607    1.000
    N14      N        0.76563    0.14317    0.09187    1.000
    O32      O        0.75813    0.16597    0.10913    1.000
    B6       B        0.78153    0.21947    0.10788    1.000
    O33      O        0.85143    0.14607    0.98206    1.000
    N15      N        0.83383    0.16377    0.99748    1.000
    C123     C        0.81223    0.18477    0.98907    1.000
    H107     H        0.81023    0.18357    0.97387    1.000
    C124     C        0.79053    0.21007    0.99961    1.000
    C125     C        0.78883    0.21217    0.02252    1.000
    C126     C        0.76863    0.23977    0.03175    1.000
    C127     C        0.75583    0.26747    0.01801    1.000
    H108     H        0.74373    0.28687    0.02427    1.000
    C128     C        0.75993    0.26777    0.99586    1.000
    C129     C        0.77723    0.23827    0.98688    1.000
    H109     H        0.78003    0.23747    0.97177    1.000
    C130     C        0.76253    0.24277    0.05464    1.000
    H110     H        0.74763    0.26117    0.05897    1.000
    N16      N        0.77483    0.22377    0.06957    1.000
    O34      O        0.76413    0.23597    0.08937    1.000
    O35      O        0.92313    0.15497    0.00209    1.000
    N17      N        0.91703    0.17557    0.01972    1.000
    C131     C        0.95823    0.20857    0.02726    1.000
    H111     H        0.98673    0.21437    0.01957    1.000
    C132     C        0.96573    0.23777    0.04621    1.000
    C133     C        0.92623    0.23207    0.05968    1.000
    C134     C        0.93883    0.26437    0.07760    1.000
    C135     C        0.98733    0.29977    0.08095    1.000
    H112     H        0.99453    0.32117    0.09287    1.000
    C136     C        0.02633    0.30607    0.06813    1.000
    C137     C        0.01393    0.27427    0.05090    1.000
    H113     H        0.03953    0.27737    0.04177    1.000
    C138     C        0.90303    0.26267    0.09277    1.000
    H114     H        0.91533    0.28417    0.10477    1.000
    N18      N        0.85713    0.23557    0.09156    1.000
    O36      O        0.83513    0.24417    0.10890    1.000
    C139     C        0.76413    0.23507    0.12897    1.000
    C140     C        0.71993    0.20497    0.13883    1.000
    H115     H        0.69943    0.17297    0.13317    1.000
    C141     C        0.70413    0.21957    0.15663    1.000
    H116     H        0.67303    0.19817    0.16277    1.000
    C142     C        0.73393    0.26557    0.16537    1.000
    C143     C        0.77903    0.29577    0.15631    1.000
    H117     H        0.80003    0.32717    0.16237    1.000
    C144     C        0.79393    0.28077    0.13836    1.000
    H118     H        0.82523    0.30217    0.13227    1.000
    O37      O        0.79963    0.11817    0.05578    1.000
    C145     C        0.65243    0.92207    0.07207    1.000
    C146     C        0.63823    0.88797    0.05307    1.000
    H119     H        0.66763    0.88947    0.04697    1.000
    H120     H        0.61533    0.85437    0.05777    1.000
    H121     H        0.62253    0.89797    0.04217    1.000
    C147     C        0.60693    0.91917    0.08107    1.000
    H122     H        0.61553    0.94107    0.09347    1.000
    H123     H        0.59133    0.92897    0.07007    1.000
    H124     H        0.58413    0.88537    0.08557    1.000
    C148     C        0.67393    0.90507    0.09037    1.000
    H125     H        0.70403    0.90627    0.08537    1.000
    H126     H        0.68133    0.92687    0.10277    1.000
    H127     H        0.64983    0.87147    0.09457    1.000
    O38      O        0.80783    0.19267    0.03478    1.000
    C149     C        0.74723    0.29957    0.98137    1.000
    C150     C        0.78833    0.33027    0.96627    1.000
    H128     H        0.79713    0.30907    0.95817    1.000
    H129     H        0.77793    0.34737    0.95637    1.000
    H130     H        0.81693    0.35427    0.97447    1.000
    C151     C        0.70203    0.26097    0.96817    1.000
    H131     H        0.67503    0.24077    0.97797    1.000
    H132     H        0.69173    0.27797    0.95817    1.000
    H133     H        0.71123    0.23997    0.96017    1.000
    C152     C        0.73233    0.33127    0.99447    1.000
    H134     H        0.70543    0.31037    0.00417    1.000
    H135     H        0.76043    0.35537    0.00287    1.000
    H136     H        0.72153    0.34847    0.98467    1.000
    O39      O        0.88163    0.19967    0.05561    1.000
    C153     C        0.07903    0.34547    0.07347    1.000
    C154     C        0.11503    0.36047    0.05567    1.000
    H137     H        0.11153    0.33127    0.04847    1.000
    H138     H        0.10913    0.38047    0.04537    1.000
    H139     H        0.14833    0.37967    0.06147    1.000
    C155     C        0.09673    0.32277    0.09087    1.000
    H140     H        0.07403    0.31217    0.10307    1.000
    H141     H        0.09773    0.29447    0.08497    1.000
    H142     H        0.12963    0.34737    0.09577    1.000
    C156     C        0.08453    0.39077    0.08457    1.000
    H143     H        0.06073    0.38087    0.09627    1.000
    H144     H        0.11783    0.40997    0.09037    1.000
    H145     H        0.07863    0.41067    0.07427    1.000
    C157     C        0.71643    0.28267    0.18424    1.000
    O40      O        0.67522    0.25347    0.19136    1.000
    O41      O        0.74622    0.32447    0.19127    1.000
    C158     C        0.90013    0.10907    0.96931    1.000
    C159     C        0.94413    0.10807    0.97012    1.000
    H146     H        0.96293    0.11817    0.98297    1.000
    C160     C        0.96133    0.09317    0.95312    1.000
    H147     H        0.99123    0.09287    0.95447    1.000
    C161     C        0.93513    0.07857    0.93399    1.000
    C162     C        0.89273    0.08147    0.93230    1.000
    H148     H        0.87483    0.07297    0.91917    1.000
    C163     C        0.87653    0.09677    0.94954    1.000
    H149     H        0.84773    0.09897    0.94787    1.000
    C164     C        0.95403    0.06207    0.91567    1.000
    O42      O        0.99023    0.05757    0.91890    1.000
    O43      O        0.93343    0.05497    0.89787    1.000
    C165     C        0.89273    0.10017    0.96971    1.000
    C166     C        0.89393    0.05627    0.97074    1.000
    H150     H        0.88463    0.03797    0.98367    1.000
    C167     C        0.90823    0.03877    0.95357    1.000
    H151     H        0.90913    0.00917    0.95487    1.000
    C168     C        0.92123    0.06487    0.93425    1.000
    C169     C        0.91753    0.10657    0.93249    1.000
    H152     H        0.92383    0.12307    0.91907    1.000
    C170     C        0.90473    0.12477    0.95013    1.000
    H153     H        0.90413    0.15457    0.94877    1.000
    C171     C        0.93963    0.04707    0.91617    1.000
    O44      O        0.94393    0.01067    0.91955    1.000
    O45      O        0.94683    0.06767    0.89817    1.000
    Co7      Co       0.51212    0.02410    0.36289    1.000
    Co8      Co       0.48044    0.96073    0.40124    1.000
    Zn4      Zn       0.29958    0.70037    0.54393    1.000
    B7       B        0.54620    0.09090    0.32350    1.000
    O46      O        0.58960    0.10190    0.33525    1.000
    N19      N        0.58360    0.07520    0.35345    1.000
    C172     C        0.62500    0.08430    0.36096    1.000
    H154     H        0.65360    0.10800    0.35370    1.000
    C173     C        0.63180    0.06110    0.37970    1.000
    C174     C        0.59260    0.02680    0.39277    1.000
    C175     C        0.60530    0.00880    0.41140    1.000
    C176     C        0.65450    0.02200    0.41515    1.000
    H155     H        0.66230    0.00970    0.42750    1.000
    C177     C        0.69180    0.05230    0.40133    1.000
    C178     C        0.67950    0.07120    0.38401    1.000
    H156     H        0.70490    0.09230    0.37450    1.000
    C179     C        0.56950    0.97670    0.42660    1.000
    H157     H        0.58210    0.97060    0.43940    1.000
    N20      N        0.52350    0.95580    0.42520    1.000
    O47      O        0.50070    0.92550    0.44246    1.000
    B8       B        0.44720    0.89540    0.44121    1.000
    O48      O        0.52060    0.03870    0.31539    1.000
    N21      N        0.50290    0.00340    0.33081    1.000
    C180     C        0.48190    0.96080    0.32240    1.000
    H158     H        0.48310    0.96000    0.30720    1.000
    C181     C        0.45660    0.91380    0.33294    1.000
    C182     C        0.45450    0.91000    0.35585    1.000
    C183     C        0.42690    0.86220    0.36508    1.000
    C184     C        0.39920    0.82170    0.35134    1.000
    H159     H        0.37980    0.79020    0.35760    1.000
    C185     C        0.39890    0.82550    0.32919    1.000
    C186     C        0.42840    0.87230    0.32021    1.000
    H160     H        0.42920    0.87590    0.30510    1.000
    C187     C        0.42390    0.85310    0.38797    1.000
    H161     H        0.40550    0.81980    0.39230    1.000
    N22      N        0.44290    0.88440    0.40290    1.000
    O49      O        0.43070    0.86150    0.42270    1.000
    O50      O        0.51170    0.10150    0.33542    1.000
    N23      N        0.49110    0.07480    0.35305    1.000
    C188     C        0.45810    0.08300    0.36059    1.000
    H162     H        0.45230    0.10570    0.35290    1.000
    C189     C        0.42890    0.06130    0.37954    1.000
    C190     C        0.43460    0.02750    0.39301    1.000
    C191     C        0.40230    0.00780    0.41093    1.000
    C192     C        0.36690    0.02090    0.41428    1.000
    H163     H        0.34550    0.00670    0.42620    1.000
    C193     C        0.36060    0.05360    0.40146    1.000
    C194     C        0.39240    0.07300    0.38423    1.000
    H164     H        0.38930    0.09550    0.37510    1.000
    C195     C        0.40400    0.97370    0.42610    1.000
    H165     H        0.38250    0.96450    0.43810    1.000
    N24      N        0.43110    0.95490    0.42489    1.000
    O51      O        0.42250    0.92430    0.44223    1.000
    C196     C        0.43160    0.86240    0.46230    1.000
    C197     C        0.46170    0.84830    0.47216    1.000
    H166     H        0.49370    0.85980    0.46650    1.000
    C198     C        0.44710    0.81790    0.48996    1.000
    H167     H        0.46850    0.80820    0.49610    1.000
    C199     C        0.40110    0.80170    0.49870    1.000
    C200     C        0.37090    0.81660    0.48964    1.000
    H168     H        0.33950    0.80620    0.49570    1.000
    C201     C        0.38590    0.84650    0.47169    1.000
    H169     H        0.36450    0.85640    0.46560    1.000
    O52      O        0.54850    0.01480    0.38911    1.000
    C202     C        0.74460    0.06370    0.40540    1.000
    C203     C        0.77870    0.08360    0.38640    1.000
    H170     H        0.77720    0.11150    0.38030    1.000
    H171     H        0.81230    0.09430    0.39110    1.000
    H172     H        0.76870    0.05790    0.37550    1.000
    C204     C        0.74750    0.02110    0.41440    1.000
    H173     H        0.72560    0.00780    0.42680    1.000
    H174     H        0.73770    0.99570    0.40340    1.000
    H175     H        0.78130    0.03210    0.41890    1.000
    C205     C        0.76160    0.10220    0.42370    1.000
    H176     H        0.76040    0.13110    0.41870    1.000
    H177     H        0.73980    0.08780    0.43610    1.000
    H178     H        0.79520    0.11170    0.42790    1.000
    O53      O        0.47400    0.94850    0.36811    1.000
    C206     C        0.36710    0.78100    0.31470    1.000
    C207     C        0.33640    0.79140    0.29960    1.000
    H179     H        0.35760    0.82140    0.29150    1.000
    H180     H        0.31930    0.76390    0.28970    1.000
    H181     H        0.31240    0.79600    0.30780    1.000
    C208     C        0.40570    0.77440    0.30150    1.000
    H182     H        0.42590    0.76760    0.31130    1.000
    H183     H        0.38870    0.74710    0.29150    1.000
    H184     H        0.42670    0.80460    0.29350    1.000
    C209     C        0.33540    0.73440    0.32780    1.000
    H185     H        0.35630    0.72840    0.33750    1.000
    H186     H        0.31130    0.73840    0.33620    1.000
    H187     H        0.31820    0.70640    0.31800    1.000
    O54      O        0.46700    0.01530    0.38894    1.000
    C210     C        0.32120    0.06690    0.40680    1.000
    C211     C        0.30620    0.08790    0.38900    1.000
    H188     H        0.33540    0.11360    0.38180    1.000
    H189     H        0.28620    0.06200    0.37870    1.000
    H190     H        0.28700    0.10200    0.39480    1.000
    C212     C        0.34390    0.10730    0.42420    1.000
    H191     H        0.35450    0.09520    0.43640    1.000
    H192     H        0.37220    0.13660    0.41830    1.000
    H193     H        0.31930    0.11560    0.42910    1.000
    C213     C        0.27590    0.02710    0.41790    1.000
    H194     H        0.28580    0.01320    0.42960    1.000
    H195     H        0.25670    0.04120    0.42370    1.000
    H196     H        0.25600    0.00130    0.40760    1.000
    C214     C        0.38400    0.76710    0.51757    1.000
    O55      O        0.41320    0.75509    0.52469    1.000
    O56      O        0.34220    0.75509    0.52460    1.000
    C215     C        0.55760    0.12440    0.30264    1.000
    C216     C        0.55860    0.16940    0.30345    1.000
    H197     H        0.54850    0.17810    0.31630    1.000
    C217     C        0.57350    0.20150    0.28645    1.000
    H198     H        0.57380    0.23170    0.28780    1.000
    C218     C        0.58810    0.18990    0.26732    1.000
    C219     C        0.58520    0.14460    0.26563    1.000
    H199     H        0.59370    0.13520    0.25250    1.000
    C220     C        0.56990    0.11310    0.28287    1.000
    H200     H        0.56770    0.08210    0.28120    1.000
    C221     C        0.60460    0.22530    0.24900    1.000
    O57      O        0.60910    0.26600    0.25223    1.000
    O58      O        0.61170    0.21180    0.23120    1.000
    C222     C        0.56650    0.12590    0.30304    1.000
    C223     C        0.61040    0.17100    0.30407    1.000
    H201     H        0.62870    0.18000    0.31700    1.000
    C224     C        0.62790    0.20280    0.28690    1.000
    H202     H        0.65750    0.23330    0.28820    1.000
    C225     C        0.60180    0.18970    0.26758    1.000
    C226     C        0.56010    0.14430    0.26582    1.000
    H203     H        0.54360    0.13410    0.25240    1.000
    C227     C        0.54190    0.11330    0.28346    1.000
    H204     H        0.51210    0.08290    0.28210    1.000
    C228     C        0.61960    0.22590    0.24950    1.000
    O59      O        0.65600    0.26660    0.25288    1.000
    O60      O        0.59900    0.21250    0.23150    1.000
    Co9      Co       0.17879    0.35743    0.69622    1.000
    Co10     Co       0.14711    0.29406    0.73457    1.000
    Zn5      Zn       0.96625    0.03370    0.87726    1.000
    B9       B        0.21287    0.42423    0.65683    1.000
    O61      O        0.25627    0.43523    0.66858    1.000
    N25      N        0.25027    0.40853    0.68678    1.000
    C229     C        0.29167    0.41763    0.69429    1.000
    H205     H        0.32027    0.44133    0.68703    1.000
    C230     C        0.29847    0.39443    0.71303    1.000
    C231     C        0.25927    0.36013    0.72610    1.000
    C232     C        0.27197    0.34213    0.74473    1.000
    C233     C        0.32117    0.35533    0.74848    1.000
    H206     H        0.32897    0.34303    0.76083    1.000
    C234     C        0.35847    0.38563    0.73466    1.000
    C235     C        0.34617    0.40453    0.71734    1.000
    H207     H        0.37157    0.42563    0.70783    1.000
    C236     C        0.23617    0.31003    0.75993    1.000
    H208     H        0.24877    0.30393    0.77273    1.000
    N26      N        0.19017    0.28913    0.75853    1.000
    O62      O        0.16737    0.25883    0.77579    1.000
    B10      B        0.11387    0.22873    0.77454    1.000
    O63      O        0.18727    0.37203    0.64872    1.000
    N27      N        0.16957    0.33673    0.66414    1.000
    C237     C        0.14857    0.29413    0.65573    1.000
    H209     H        0.14977    0.29333    0.64053    1.000
    C238     C        0.12327    0.24713    0.66627    1.000
    C239     C        0.12117    0.24333    0.68918    1.000
    C240     C        0.09357    0.19553    0.69841    1.000
    C241     C        0.06587    0.15503    0.68467    1.000
    H210     H        0.04647    0.12353    0.69093    1.000
    C242     C        0.06557    0.15883    0.66252    1.000
    C243     C        0.09507    0.20563    0.65354    1.000
    H211     H        0.09587    0.20923    0.63843    1.000
    C244     C        0.09057    0.18643    0.72130    1.000
    H212     H        0.07217    0.15313    0.72563    1.000
    N28      N        0.10957    0.21773    0.73623    1.000
    O64      O        0.09737    0.19483    0.75603    1.000
    O65      O        0.17837    0.43483    0.66875    1.000
    N29      N        0.15777    0.40813    0.68638    1.000
    C245     C        0.12477    0.41633    0.69392    1.000
    H213     H        0.11897    0.43903    0.68623    1.000
    C246     C        0.09557    0.39463    0.71287    1.000
    C247     C        0.10127    0.36083    0.72634    1.000
    C248     C        0.06897    0.34113    0.74426    1.000
    C249     C        0.03357    0.35423    0.74761    1.000
    H214     H        0.01217    0.34003    0.75953    1.000
    C250     C        0.02727    0.38693    0.73479    1.000
    C251     C        0.05907    0.40633    0.71756    1.000
    H215     H        0.05597    0.42883    0.70843    1.000
    C252     C        0.07067    0.30703    0.75943    1.000
    H216     H        0.04917    0.29783    0.77143    1.000
    N30      N        0.09777    0.28823    0.75822    1.000
    O66      O        0.08917    0.25763    0.77556    1.000
    C253     C        0.09827    0.19573    0.79563    1.000
    C254     C        0.12837    0.18163    0.80549    1.000
    H217     H        0.16037    0.19313    0.79983    1.000
    C255     C        0.11377    0.15123    0.82329    1.000
    H218     H        0.13517    0.14153    0.82943    1.000
    C256     C        0.06777    0.13503    0.83203    1.000
    C257     C        0.03757    0.14993    0.82297    1.000
    H219     H        0.00617    0.13953    0.82903    1.000
    C258     C        0.05257    0.17983    0.80502    1.000
    H220     H        0.03117    0.18973    0.79893    1.000
    O67      O        0.21517    0.34813    0.72244    1.000
    C259     C        0.41127    0.39703    0.73873    1.000
    C260     C        0.44537    0.41693    0.71973    1.000
    H221     H        0.44387    0.44483    0.71363    1.000
    H222     H        0.47897    0.42763    0.72443    1.000
    H223     H        0.43537    0.39123    0.70883    1.000
    C261     C        0.41417    0.35443    0.74773    1.000
    H224     H        0.39227    0.34113    0.76013    1.000
    H225     H        0.40437    0.32903    0.73673    1.000
    H226     H        0.44797    0.36543    0.75223    1.000
    C262     C        0.42827    0.43553    0.75703    1.000
    H227     H        0.42707    0.46443    0.75203    1.000
    H228     H        0.40647    0.42113    0.76943    1.000
    H229     H        0.46187    0.44503    0.76123    1.000
    O68      O        0.14067    0.28183    0.70144    1.000
    C263     C        0.03377    0.11433    0.64803    1.000
    C264     C        0.00307    0.12473    0.63293    1.000
    H230     H        0.02427    0.15473    0.62483    1.000
    H231     H        0.98597    0.09723    0.62303    1.000
    H232     H        0.97907    0.12933    0.64113    1.000
    C265     C        0.07237    0.10773    0.63483    1.000
    H233     H        0.09257    0.10093    0.64463    1.000
    H234     H        0.05537    0.08043    0.62483    1.000
    H235     H        0.09337    0.13793    0.62683    1.000
    C266     C        0.00207    0.06773    0.66113    1.000
    H236     H        0.02297    0.06173    0.67083    1.000
    H237     H        0.97797    0.07173    0.66953    1.000
    H238     H        0.98487    0.03973    0.65133    1.000
    O69      O        0.13367    0.34863    0.72227    1.000
    C267     C        0.98787    0.40023    0.74013    1.000
    C268     C        0.97287    0.42123    0.72233    1.000
    H239     H        0.00207    0.44693    0.71513    1.000
    H240     H        0.95287    0.39533    0.71203    1.000
    H241     H        0.95367    0.43533    0.72813    1.000
    C269     C        0.01057    0.44063    0.75753    1.000
    H242     H        0.02117    0.42853    0.76973    1.000
    H243     H        0.03887    0.46993    0.75163    1.000
    H244     H        0.98597    0.44893    0.76243    1.000
    C270     C        0.94257    0.36043    0.75123    1.000
    H245     H        0.95247    0.34653    0.76293    1.000
    H246     H        0.92337    0.37453    0.75703    1.000
    H247     H        0.92267    0.33463    0.74093    1.000
    C271     C        0.05067    0.10043    0.85090    1.000
    O70      O        0.07987    0.08842    0.85802    1.000
    O71      O        0.00887    0.08842    0.85793    1.000
    C272     C        0.22427    0.45773    0.63597    1.000
    C273     C        0.22527    0.50273    0.63678    1.000
    H248     H        0.21517    0.51143    0.64963    1.000
    C274     C        0.24017    0.53483    0.61978    1.000
    H249     H        0.24047    0.56503    0.62113    1.000
    C275     C        0.25477    0.52323    0.60065    1.000
    C276     C        0.25187    0.47793    0.59896    1.000
    H250     H        0.26037    0.46853    0.58583    1.000
    C277     C        0.23657    0.44643    0.61620    1.000
    H251     H        0.23437    0.41543    0.61453    1.000
    C278     C        0.27127    0.55863    0.58233    1.000
    O72      O        0.27577    0.59933    0.58556    1.000
    O73      O        0.27837    0.54513    0.56453    1.000
    C279     C        0.23317    0.45923    0.63637    1.000
    C280     C        0.27707    0.50433    0.63740    1.000
    H252     H        0.29537    0.51333    0.65033    1.000
    C281     C        0.29457    0.53613    0.62023    1.000
    H253     H        0.32417    0.56663    0.62153    1.000
    C282     C        0.26847    0.52303    0.60091    1.000
    C283     C        0.22677    0.47763    0.59915    1.000
    H254     H        0.21027    0.46743    0.58573    1.000
    C284     C        0.20857    0.44663    0.61679    1.000
    H255     H        0.17877    0.41623    0.61543    1.000
    C285     C        0.28627    0.55923    0.58283    1.000
    O74      O        0.32267    0.59993    0.58621    1.000
    O75      O        0.26567    0.54583    0.56483    1.000
    Co11     Co       0.84545    0.69077    0.02956    1.000
    Co12     Co       0.81377    0.62740    0.06791    1.000
    Zn6      Zn       0.63291    0.36704    0.21060    1.000
    B11      B        0.87953    0.75757    0.99017    1.000
    O76      O        0.92293    0.76857    0.00192    1.000
    N31      N        0.91693    0.74187    0.02012    1.000
    C286     C        0.95833    0.75097    0.02763    1.000
    H256     H        0.98693    0.77467    0.02037    1.000
    C287     C        0.96513    0.72777    0.04637    1.000
    C288     C        0.92593    0.69347    0.05944    1.000
    C289     C        0.93863    0.67547    0.07807    1.000
    C290     C        0.98783    0.68867    0.08182    1.000
    H257     H        0.99563    0.67637    0.09417    1.000
    C291     C        0.02513    0.71897    0.06800    1.000
    C292     C        0.01283    0.73787    0.05068    1.000
    H258     H        0.03823    0.75897    0.04117    1.000
    C293     C        0.90283    0.64337    0.09327    1.000
    H259     H        0.91543    0.63727    0.10607    1.000
    N32      N        0.85683    0.62247    0.09187    1.000
    O77      O        0.83403    0.59217    0.10913    1.000
    B12      B        0.78053    0.56207    0.10788    1.000
    O78      O        0.85393    0.70537    0.98206    1.000
    N33      N        0.83623    0.67007    0.99748    1.000
    C294     C        0.81523    0.62747    0.98907    1.000
    H260     H        0.81643    0.62667    0.97387    1.000
    C295     C        0.78993    0.58047    0.99961    1.000
    C296     C        0.78783    0.57667    0.02252    1.000
    C297     C        0.76023    0.52887    0.03175    1.000
    C298     C        0.73253    0.48837    0.01801    1.000
    H261     H        0.71313    0.45687    0.02427    1.000
    C299     C        0.73223    0.49217    0.99586    1.000
    C300     C        0.76173    0.53897    0.98688    1.000
    H262     H        0.76253    0.54257    0.97177    1.000
    C301     C        0.75723    0.51977    0.05464    1.000
    H263     H        0.73883    0.48647    0.05897    1.000
    N34      N        0.77623    0.55107    0.06957    1.000
    O79      O        0.76403    0.52817    0.08937    1.000
    O80      O        0.84503    0.76817    0.00209    1.000
    N35      N        0.82443    0.74147    0.01972    1.000
    C302     C        0.79143    0.74967    0.02726    1.000
    H264     H        0.78563    0.77237    0.01957    1.000
    C303     C        0.76223    0.72797    0.04621    1.000
    C304     C        0.76793    0.69417    0.05968    1.000
    C305     C        0.73563    0.67447    0.07760    1.000
    C306     C        0.70023    0.68757    0.08095    1.000
    H265     H        0.67883    0.67337    0.09287    1.000
    C307     C        0.69393    0.72027    0.06813    1.000
    C308     C        0.72573    0.73967    0.05090    1.000
    H266     H        0.72263    0.76217    0.04177    1.000
    C309     C        0.73733    0.64037    0.09277    1.000
    H267     H        0.71583    0.63117    0.10477    1.000
    N36      N        0.76443    0.62157    0.09156    1.000
    O81      O        0.75583    0.59097    0.10890    1.000
    C310     C        0.76493    0.52907    0.12897    1.000
    C311     C        0.79503    0.51497    0.13883    1.000
    H268     H        0.82703    0.52647    0.13317    1.000
    C312     C        0.78043    0.48457    0.15663    1.000
    H269     H        0.80183    0.47487    0.16277    1.000
    C313     C        0.73443    0.46837    0.16537    1.000
    C314     C        0.70423    0.48327    0.15631    1.000
    H270     H        0.67283    0.47287    0.16237    1.000
    C315     C        0.71923    0.51317    0.13836    1.000
    H271     H        0.69783    0.52307    0.13227    1.000
    O82      O        0.88183    0.68147    0.05578    1.000
    C316     C        0.07793    0.73037    0.07207    1.000
    C317     C        0.11203    0.75027    0.05307    1.000
    H272     H        0.11053    0.77817    0.04697    1.000
    H273     H        0.14563    0.76097    0.05777    1.000
    H274     H        0.10203    0.72457    0.04217    1.000
    C318     C        0.08083    0.68777    0.08107    1.000
    H275     H        0.05893    0.67447    0.09347    1.000
    H276     H        0.07103    0.66237    0.07007    1.000
    H277     H        0.11463    0.69877    0.08557    1.000
    C319     C        0.09493    0.76887    0.09037    1.000
    H278     H        0.09373    0.79777    0.08537    1.000
    H279     H        0.07313    0.75447    0.10277    1.000
    H280     H        0.12853    0.77837    0.09457    1.000
    O83      O        0.80733    0.61517    0.03478    1.000
    C320     C        0.70043    0.44767    0.98137    1.000
    C321     C        0.66973    0.45807    0.96627    1.000
    H281     H        0.69093    0.48807    0.95817    1.000
    H282     H        0.65263    0.43057    0.95637    1.000
    H283     H        0.64573    0.46267    0.97447    1.000
    C322     C        0.73903    0.44107    0.96817    1.000
    H284     H        0.75923    0.43427    0.97797    1.000
    H285     H        0.72203    0.41377    0.95817    1.000
    H286     H        0.76003    0.47127    0.96017    1.000
    C323     C        0.66873    0.40107    0.99447    1.000
    H287     H        0.68963    0.39507    0.00417    1.000
    H288     H        0.64463    0.40507    0.00287    1.000
    H289     H        0.65153    0.37307    0.98467    1.000
    O84      O        0.80033    0.68197    0.05561    1.000
    C324     C        0.65453    0.73357    0.07347    1.000
    C325     C        0.63953    0.75457    0.05567    1.000
    H290     H        0.66873    0.78027    0.04847    1.000
    H291     H        0.61953    0.72867    0.04537    1.000
    H292     H        0.62033    0.76867    0.06147    1.000
    C326     C        0.67723    0.77397    0.09087    1.000
    H293     H        0.68783    0.76187    0.10307    1.000
    H294     H        0.70553    0.80327    0.08497    1.000
    H295     H        0.65263    0.78227    0.09577    1.000
    C327     C        0.60923    0.69377    0.08457    1.000
    H296     H        0.61913    0.67987    0.09627    1.000
    H297     H        0.59003    0.70787    0.09037    1.000
    H298     H        0.58933    0.66797    0.07427    1.000
    C328     C        0.71733    0.43377    0.18424    1.000
    O85      O        0.74653    0.42176    0.19136    1.000
    O86      O        0.67553    0.42176    0.19127    1.000
    C329     C        0.89093    0.79107    0.96931    1.000
    C330     C        0.89193    0.83607    0.97012    1.000
    H299     H        0.88183    0.84477    0.98297    1.000
    C331     C        0.90683    0.86817    0.95312    1.000
    H300     H        0.90713    0.89837    0.95447    1.000
    C332     C        0.92143    0.85657    0.93399    1.000
    C333     C        0.91853    0.81127    0.93230    1.000
    H301     H        0.92703    0.80187    0.91917    1.000
    C334     C        0.90323    0.77977    0.94954    1.000
    H302     H        0.90103    0.74877    0.94787    1.000
    C335     C        0.93793    0.89197    0.91567    1.000
    O87      O        0.94243    0.93267    0.91890    1.000
    O88      O        0.94503    0.87847    0.89787    1.000
    C336     C        0.89983    0.79257    0.96971    1.000
    C337     C        0.94373    0.83767    0.97074    1.000
    H303     H        0.96203    0.84667    0.98367    1.000
    C338     C        0.96123    0.86947    0.95357    1.000
    H304     H        0.99083    0.89997    0.95487    1.000
    C339     C        0.93513    0.85637    0.93425    1.000
    C340     C        0.89343    0.81097    0.93249    1.000
    H305     H        0.87693    0.80077    0.91907    1.000
    C341     C        0.87523    0.77997    0.95013    1.000
    H306     H        0.84543    0.74957    0.94877    1.000
    C342     C        0.95293    0.89257    0.91617    1.000
    O89      O        0.98933    0.93327    0.91955    1.000
    O90      O        0.93233    0.87917    0.89817    1.000
    Co13     Co       0.97590    0.48802    0.36289    1.000
    Co14     Co       0.03927    0.51971    0.40124    1.000
    Zn7      Zn       0.29963    0.59921    0.54393    1.000
    B13      B        0.90910    0.45530    0.32350    1.000
    O91      O        0.89810    0.48770    0.33525    1.000
    N37      N        0.92480    0.50840    0.35345    1.000
    C343     C        0.91570    0.54070    0.36096    1.000
    H307     H        0.89200    0.54560    0.35370    1.000
    C344     C        0.93890    0.57070    0.37970    1.000
    C345     C        0.97320    0.56580    0.39277    1.000
    C346     C        0.99120    0.59650    0.41140    1.000
    C347     C        0.97800    0.63250    0.41515    1.000
    H308     H        0.99030    0.65260    0.42750    1.000
    C348     C        0.94770    0.63950    0.40133    1.000
    C349     C        0.92880    0.60830    0.38401    1.000
    H309     H        0.90770    0.61260    0.37450    1.000
    C350     C        0.02330    0.59280    0.42660    1.000
    H310     H        0.02940    0.61150    0.43940    1.000
    N38      N        0.04420    0.56770    0.42520    1.000
    O92      O        0.07450    0.57520    0.44246    1.000
    B14      B        0.10460    0.55180    0.44121    1.000
    O93      O        0.96130    0.48190    0.31539    1.000
    N39      N        0.99660    0.49950    0.33081    1.000
    C351     C        0.03920    0.52110    0.32240    1.000
    H311     H        0.04000    0.52310    0.30720    1.000
    C352     C        0.08620    0.54280    0.33294    1.000
    C353     C        0.09000    0.54450    0.35585    1.000
    C354     C        0.13780    0.56470    0.36508    1.000
    C355     C        0.17830    0.57750    0.35134    1.000
    H312     H        0.20980    0.58960    0.35760    1.000
    C356     C        0.17450    0.57340    0.32919    1.000
    C357     C        0.12770    0.55610    0.32021    1.000
    H313     H        0.12410    0.55330    0.30510    1.000
    C358     C        0.14690    0.57080    0.38797    1.000
    H314     H        0.18020    0.58570    0.39230    1.000
    N40      N        0.11560    0.55850    0.40290    1.000
    O94      O        0.13850    0.56920    0.42270    1.000
    O95      O        0.89850    0.41020    0.33542    1.000
    N41      N        0.92520    0.41630    0.35305    1.000
    C359     C        0.91700    0.37510    0.36059    1.000
    H315     H        0.89430    0.34660    0.35290    1.000
    C360     C        0.93870    0.36760    0.37954    1.000
    C361     C        0.97250    0.40710    0.39301    1.000
    C362     C        0.99220    0.39450    0.41093    1.000
    C363     C        0.97910    0.34600    0.41428    1.000
    H316     H        0.99330    0.33880    0.42620    1.000
    C364     C        0.94640    0.30700    0.40146    1.000
    C365     C        0.92700    0.31940    0.38423    1.000
    H317     H        0.90450    0.29380    0.37510    1.000
    C366     C        0.02630    0.43030    0.42610    1.000
    H318     H        0.03550    0.41800    0.43810    1.000
    N42      N        0.04510    0.47620    0.42489    1.000
    O96      O        0.07570    0.49820    0.44223    1.000
    C367     C        0.13760    0.56920    0.46230    1.000
    C368     C        0.15170    0.61340    0.47216    1.000
    H319     H        0.14020    0.63390    0.46650    1.000
    C369     C        0.18210    0.62920    0.48996    1.000
    H320     H        0.19180    0.66030    0.49610    1.000
    C370     C        0.19830    0.59940    0.49870    1.000
    C371     C        0.18340    0.55430    0.48964    1.000
    H321     H        0.19380    0.53330    0.49570    1.000
    C372     C        0.15350    0.53940    0.47169    1.000
    H322     H        0.14360    0.50810    0.46560    1.000
    O97      O        0.98520    0.53370    0.38911    1.000
    C373     C        0.93630    0.68090    0.40540    1.000
    C374     C        0.91640    0.69510    0.38640    1.000
    H323     H        0.88850    0.66570    0.38030    1.000
    H324     H        0.90570    0.71800    0.39110    1.000
    H325     H        0.94210    0.71080    0.37550    1.000
    C375     C        0.97890    0.72640    0.41440    1.000
    H326     H        0.99220    0.71780    0.42680    1.000
    H327     H        0.00430    0.74200    0.40340    1.000
    H328     H        0.96790    0.74920    0.41890    1.000
    C376     C        0.89780    0.65940    0.42370    1.000
    H329     H        0.86890    0.62930    0.41870    1.000
    H330     H        0.91220    0.65200    0.43610    1.000
    H331     H        0.88830    0.68350    0.42790    1.000
    O98      O        0.05150    0.52550    0.36811    1.000
    C377     C        0.21900    0.58610    0.31470    1.000
    C378     C        0.20860    0.54500    0.29960    1.000
    H332     H        0.17860    0.53620    0.29150    1.000
    H333     H        0.23610    0.55540    0.28970    1.000
    H334     H        0.20400    0.51640    0.30780    1.000
    C379     C        0.22560    0.63130    0.30150    1.000
    H335     H        0.23240    0.65830    0.31130    1.000
    H336     H        0.25290    0.64160    0.29150    1.000
    H337     H        0.19540    0.62210    0.29350    1.000
    C380     C        0.26560    0.60100    0.32780    1.000
    H338     H        0.27160    0.62790    0.33750    1.000
    H339     H        0.26160    0.57290    0.33620    1.000
    H340     H        0.29360    0.61180    0.31800    1.000
    O99      O        0.98470    0.45170    0.38894    1.000
    C381     C        0.93310    0.25430    0.40680    1.000
    C382     C        0.91210    0.21830    0.38900    1.000
    H341     H        0.88640    0.22180    0.38180    1.000
    H342     H        0.93800    0.22420    0.37870    1.000
    H343     H        0.89800    0.18500    0.39480    1.000
    C383     C        0.89270    0.23660    0.42420    1.000
    H344     H        0.90480    0.25930    0.43640    1.000
    H345     H        0.86340    0.23560    0.41830    1.000
    H346     H        0.88440    0.20370    0.42910    1.000
    C384     C        0.97290    0.24880    0.41790    1.000
    H347     H        0.98680    0.27260    0.42960    1.000
    H348     H        0.95880    0.21550    0.42370    1.000
    H349     H        0.99870    0.25470    0.40760    1.000
    C385     C        0.23290    0.61690    0.51757    1.000
    O100     O        0.24491    0.65811    0.52469    1.000
    O101     O        0.24491    0.58711    0.52460    1.000
    C386     C        0.87560    0.43320    0.30264    1.000
    C387     C        0.83060    0.38920    0.30345    1.000
    H350     H        0.82190    0.37040    0.31630    1.000
    C388     C        0.79850    0.37200    0.28645    1.000
    H351     H        0.76830    0.34210    0.28780    1.000
    C389     C        0.81010    0.39820    0.26732    1.000
    C390     C        0.85540    0.44060    0.26563    1.000
    H352     H        0.86480    0.45850    0.25250    1.000
    C391     C        0.88690    0.45680    0.28287    1.000
    H353     H        0.91790    0.48560    0.28120    1.000
    C392     C        0.77470    0.37930    0.24900    1.000
    O102     O        0.73400    0.34310    0.25223    1.000
    O103     O        0.78820    0.39990    0.23120    1.000
    C393     C        0.87410    0.44060    0.30304    1.000
    C394     C        0.82900    0.43940    0.30407    1.000
    H354     H        0.82000    0.44870    0.31700    1.000
    C395     C        0.79720    0.42510    0.28690    1.000
    H355     H        0.76670    0.42420    0.28820    1.000
    C396     C        0.81030    0.41210    0.26758    1.000
    C397     C        0.85570    0.41580    0.26582    1.000
    H356     H        0.86590    0.40950    0.25240    1.000
    C398     C        0.88670    0.42860    0.28346    1.000
    H357     H        0.91710    0.42920    0.28210    1.000
    C399     C        0.77410    0.39370    0.24950    1.000
    O104     O        0.73340    0.38940    0.25288    1.000
    O105     O        0.78750    0.38650    0.23150    1.000
    Co15     Co       0.64257    0.82135    0.69622    1.000
    Co16     Co       0.70594    0.85304    0.73457    1.000
    Zn8      Zn       0.96630    0.93254    0.87726    1.000
    B15      B        0.57577    0.78863    0.65683    1.000
    O106     O        0.56477    0.82103    0.66858    1.000
    N43      N        0.59147    0.84173    0.68678    1.000
    C400     C        0.58237    0.87403    0.69429    1.000
    H358     H        0.55867    0.87893    0.68703    1.000
    C401     C        0.60557    0.90403    0.71303    1.000
    C402     C        0.63987    0.89913    0.72610    1.000
    C403     C        0.65787    0.92983    0.74473    1.000
    C404     C        0.64467    0.96583    0.74848    1.000
    H359     H        0.65697    0.98593    0.76083    1.000
    C405     C        0.61437    0.97283    0.73466    1.000
    C406     C        0.59547    0.94163    0.71734    1.000
    H360     H        0.57437    0.94593    0.70783    1.000
    C407     C        0.68997    0.92613    0.75993    1.000
    H361     H        0.69607    0.94483    0.77273    1.000
    N44      N        0.71087    0.90103    0.75853    1.000
    O107     O        0.74117    0.90853    0.77579    1.000
    B16      B        0.77127    0.88513    0.77454    1.000
    O108     O        0.62797    0.81523    0.64872    1.000
    N45      N        0.66327    0.83283    0.66414    1.000
    C408     C        0.70587    0.85443    0.65573    1.000
    H362     H        0.70667    0.85643    0.64053    1.000
    C409     C        0.75287    0.87613    0.66627    1.000
    C410     C        0.75667    0.87783    0.68918    1.000
    C411     C        0.80447    0.89803    0.69841    1.000
    C412     C        0.84497    0.91083    0.68467    1.000
    H363     H        0.87647    0.92293    0.69093    1.000
    C413     C        0.84117    0.90673    0.66252    1.000
    C414     C        0.79437    0.88943    0.65354    1.000
    H364     H        0.79077    0.88663    0.63843    1.000
    C415     C        0.81357    0.90413    0.72130    1.000
    H365     H        0.84687    0.91903    0.72563    1.000
    N46      N        0.78227    0.89183    0.73623    1.000
    O109     O        0.80517    0.90253    0.75603    1.000
    O110     O        0.56517    0.74353    0.66875    1.000
    N47      N        0.59187    0.74963    0.68638    1.000
    C416     C        0.58367    0.70843    0.69392    1.000
    H366     H        0.56097    0.67993    0.68623    1.000
    C417     C        0.60537    0.70093    0.71287    1.000
    C418     C        0.63917    0.74043    0.72634    1.000
    C419     C        0.65887    0.72783    0.74426    1.000
    C420     C        0.64577    0.67933    0.74761    1.000
    H367     H        0.65997    0.67213    0.75953    1.000
    C421     C        0.61307    0.64033    0.73479    1.000
    C422     C        0.59367    0.65273    0.71756    1.000
    H368     H        0.57117    0.62713    0.70843    1.000
    C423     C        0.69297    0.76363    0.75943    1.000
    H369     H        0.70217    0.75133    0.77143    1.000
    N48      N        0.71177    0.80953    0.75822    1.000
    O111     O        0.74237    0.83153    0.77556    1.000
    C424     C        0.80427    0.90253    0.79563    1.000
    C425     C        0.81837    0.94673    0.80549    1.000
    H370     H        0.80687    0.96723    0.79983    1.000
    C426     C        0.84877    0.96253    0.82329    1.000
    H371     H        0.85847    0.99363    0.82943    1.000
    C427     C        0.86497    0.93273    0.83203    1.000
    C428     C        0.85007    0.88763    0.82297    1.000
    H372     H        0.86047    0.86663    0.82903    1.000
    C429     C        0.82017    0.87273    0.80502    1.000
    H373     H        0.81027    0.84143    0.79893    1.000
    O112     O        0.65187    0.86703    0.72244    1.000
    C430     C        0.60297    0.01423    0.73873    1.000
    C431     C        0.58307    0.02843    0.71973    1.000
    H374     H        0.55517    0.99903    0.71363    1.000
    H375     H        0.57237    0.05133    0.72443    1.000
    H376     H        0.60877    0.04413    0.70883    1.000
    C432     C        0.64557    0.05973    0.74773    1.000
    H377     H        0.65887    0.05113    0.76013    1.000
    H378     H        0.67097    0.07533    0.73673    1.000
    H379     H        0.63457    0.08253    0.75223    1.000
    C433     C        0.56447    0.99273    0.75703    1.000
    H380     H        0.53557    0.96263    0.75203    1.000
    H381     H        0.57887    0.98533    0.76943    1.000
    H382     H        0.55497    0.01683    0.76123    1.000
    O113     O        0.71817    0.85883    0.70144    1.000
    C434     C        0.88567    0.91943    0.64803    1.000
    C435     C        0.87527    0.87833    0.63293    1.000
    H383     H        0.84527    0.86953    0.62483    1.000
    H384     H        0.90277    0.88873    0.62303    1.000
    H385     H        0.87067    0.84973    0.64113    1.000
    C436     C        0.89227    0.96463    0.63483    1.000
    H386     H        0.89907    0.99163    0.64463    1.000
    H387     H        0.91957    0.97493    0.62483    1.000
    H388     H        0.86207    0.95543    0.62683    1.000
    C437     C        0.93227    0.93433    0.66113    1.000
    H389     H        0.93827    0.96123    0.67083    1.000
    H390     H        0.92827    0.90623    0.66953    1.000
    H391     H        0.96027    0.94513    0.65133    1.000
    O114     O        0.65137    0.78503    0.72227    1.000
    C438     C        0.59977    0.58763    0.74013    1.000
    C439     C        0.57877    0.55163    0.72233    1.000
    H392     H        0.55307    0.55513    0.71513    1.000
    H393     H        0.60467    0.55753    0.71203    1.000
    H394     H        0.56467    0.51833    0.72813    1.000
    C440     C        0.55937    0.56993    0.75753    1.000
    H395     H        0.57147    0.59263    0.76973    1.000
    H396     H        0.53007    0.56893    0.75163    1.000
    H397     H        0.55107    0.53703    0.76243    1.000
    C441     C        0.63957    0.58213    0.75123    1.000
    H398     H        0.65347    0.60593    0.76293    1.000
    H399     H        0.62547    0.54883    0.75703    1.000
    H400     H        0.66537    0.58803    0.74093    1.000
    C442     C        0.89957    0.95023    0.85090    1.000
    O115     O        0.91158    0.99144    0.85802    1.000
    O116     O        0.91158    0.92044    0.85793    1.000
    C443     C        0.54227    0.76653    0.63597    1.000
    C444     C        0.49727    0.72253    0.63678    1.000
    H401     H        0.48857    0.70373    0.64963    1.000
    C445     C        0.46517    0.70533    0.61978    1.000
    H402     H        0.43497    0.67543    0.62113    1.000
    C446     C        0.47677    0.73153    0.60065    1.000
    C447     C        0.52207    0.77393    0.59896    1.000
    H403     H        0.53147    0.79183    0.58583    1.000
    C448     C        0.55357    0.79013    0.61620    1.000
    H404     H        0.58457    0.81893    0.61453    1.000
    C449     C        0.44137    0.71263    0.58233    1.000
    O117     O        0.40067    0.67643    0.58556    1.000
    O118     O        0.45487    0.73323    0.56453    1.000
    C450     C        0.54077    0.77393    0.63637    1.000
    C451     C        0.49567    0.77273    0.63740    1.000
    H405     H        0.48667    0.78203    0.65033    1.000
    C452     C        0.46387    0.75843    0.62023    1.000
    H406     H        0.43337    0.75753    0.62153    1.000
    C453     C        0.47697    0.74543    0.60091    1.000
    C454     C        0.52237    0.74913    0.59915    1.000
    H407     H        0.53257    0.74283    0.58573    1.000
    C455     C        0.55337    0.76193    0.61679    1.000
    H408     H        0.58377    0.76253    0.61543    1.000
    C456     C        0.44077    0.72703    0.58283    1.000
    O119     O        0.40007    0.72273    0.58621    1.000
    O120     O        0.45417    0.71983    0.56483    1.000
    Co17     Co       0.30923    0.15469    0.02956    1.000
    Co18     Co       0.37260    0.18638    0.06791    1.000
    Zn9      Zn       0.63296    0.26588    0.21060    1.000
    B17      B        0.24243    0.12197    0.99017    1.000
    O121     O        0.23143    0.15437    0.00192    1.000
    N49      N        0.25813    0.17507    0.02012    1.000
    C457     C        0.24903    0.20737    0.02763    1.000
    H409     H        0.22533    0.21227    0.02037    1.000
    C458     C        0.27223    0.23737    0.04637    1.000
    C459     C        0.30653    0.23247    0.05944    1.000
    C460     C        0.32453    0.26317    0.07807    1.000
    C461     C        0.31133    0.29917    0.08182    1.000
    H410     H        0.32363    0.31927    0.09417    1.000
    C462     C        0.28103    0.30617    0.06800    1.000
    C463     C        0.26213    0.27497    0.05068    1.000
    H411     H        0.24103    0.27927    0.04117    1.000
    C464     C        0.35663    0.25947    0.09327    1.000
    H412     H        0.36273    0.27817    0.10607    1.000
    N50      N        0.37753    0.23437    0.09187    1.000
    O122     O        0.40783    0.24187    0.10913    1.000
    B18      B        0.43793    0.21847    0.10788    1.000
    O123     O        0.29463    0.14857    0.98206    1.000
    N51      N        0.32993    0.16617    0.99748    1.000
    C465     C        0.37253    0.18777    0.98907    1.000
    H413     H        0.37333    0.18977    0.97387    1.000
    C466     C        0.41953    0.20947    0.99961    1.000
    C467     C        0.42333    0.21117    0.02252    1.000
    C468     C        0.47113    0.23137    0.03175    1.000
    C469     C        0.51163    0.24417    0.01801    1.000
    H414     H        0.54313    0.25627    0.02427    1.000
    C470     C        0.50783    0.24007    0.99586    1.000
    C471     C        0.46103    0.22277    0.98688    1.000
    H415     H        0.45743    0.21997    0.97177    1.000
    C472     C        0.48023    0.23747    0.05464    1.000
    H416     H        0.51353    0.25237    0.05897    1.000
    N52      N        0.44893    0.22517    0.06957    1.000
    O124     O        0.47183    0.23587    0.08937    1.000
    O125     O        0.23183    0.07687    0.00209    1.000
    N53      N        0.25853    0.08297    0.01972    1.000
    C473     C        0.25033    0.04177    0.02726    1.000
    H417     H        0.22763    0.01327    0.01957    1.000
    C474     C        0.27203    0.03427    0.04621    1.000
    C475     C        0.30583    0.07377    0.05968    1.000
    C476     C        0.32553    0.06117    0.07760    1.000
    C477     C        0.31243    0.01267    0.08095    1.000
    H418     H        0.32663    0.00547    0.09287    1.000
    C478     C        0.27973    0.97367    0.06813    1.000
    C479     C        0.26033    0.98607    0.05090    1.000
    H419     H        0.23783    0.96047    0.04177    1.000
    C480     C        0.35963    0.09697    0.09277    1.000
    H420     H        0.36883    0.08467    0.10477    1.000
    N54      N        0.37843    0.14287    0.09156    1.000
    O126     O        0.40903    0.16487    0.10890    1.000
    C481     C        0.47093    0.23587    0.12897    1.000
    C482     C        0.48503    0.28007    0.13883    1.000
    H421     H        0.47353    0.30057    0.13317    1.000
    C483     C        0.51543    0.29587    0.15663    1.000
    H422     H        0.52513    0.32697    0.16277    1.000
    C484     C        0.53163    0.26607    0.16537    1.000
    C485     C        0.51673    0.22097    0.15631    1.000
    H423     H        0.52713    0.19997    0.16237    1.000
    C486     C        0.48683    0.20607    0.13836    1.000
    H424     H        0.47693    0.17477    0.13227    1.000
    O127     O        0.31853    0.20037    0.05578    1.000
    C487     C        0.26963    0.34757    0.07207    1.000
    C488     C        0.24973    0.36177    0.05307    1.000
    H425     H        0.22183    0.33237    0.04697    1.000
    H426     H        0.23903    0.38467    0.05777    1.000
    H427     H        0.27543    0.37747    0.04217    1.000
    C489     C        0.31223    0.39307    0.08107    1.000
    H428     H        0.32553    0.38447    0.09347    1.000
    H429     H        0.33763    0.40867    0.07007    1.000
    H430     H        0.30123    0.41587    0.08557    1.000
    C490     C        0.23113    0.32607    0.09037    1.000
    H431     H        0.20223    0.29597    0.08537    1.000
    H432     H        0.24553    0.31867    0.10277    1.000
    H433     H        0.22163    0.35017    0.09457    1.000
    O128     O        0.38483    0.19217    0.03478    1.000
    C491     C        0.55233    0.25277    0.98137    1.000
    C492     C        0.54193    0.21167    0.96627    1.000
    H434     H        0.51193    0.20287    0.95817    1.000
    H435     H        0.56943    0.22207    0.95637    1.000
    H436     H        0.53733    0.18307    0.97447    1.000
    C493     C        0.55893    0.29797    0.96817    1.000
    H437     H        0.56573    0.32497    0.97797    1.000
    H438     H        0.58623    0.30827    0.95817    1.000
    H439     H        0.52873    0.28877    0.96017    1.000
    C494     C        0.59893    0.26767    0.99447    1.000
    H440     H        0.60493    0.29457    0.00417    1.000
    H441     H        0.59493    0.23957    0.00287    1.000
    H442     H        0.62693    0.27847    0.98467    1.000
    O129     O        0.31803    0.11837    0.05561    1.000
    C495     C        0.26643    0.92097    0.07347    1.000
    C496     C        0.24543    0.88497    0.05567    1.000
    H443     H        0.21973    0.88847    0.04847    1.000
    H444     H        0.27133    0.89087    0.04537    1.000
    H445     H        0.23133    0.85167    0.06147    1.000
    C497     C        0.22603    0.90327    0.09087    1.000
    H446     H        0.23813    0.92597    0.10307    1.000
    H447     H        0.19673    0.90227    0.08497    1.000
    H448     H        0.21773    0.87037    0.09577    1.000
    C498     C        0.30623    0.91547    0.08457    1.000
    H449     H        0.32013    0.93927    0.09627    1.000
    H450     H        0.29213    0.88217    0.09037    1.000
    H451     H        0.33203    0.92137    0.07427    1.000
    C499     C        0.56623    0.28357    0.18424    1.000
    O130     O        0.57824    0.32478    0.19136    1.000
    O131     O        0.57824    0.25378    0.19127    1.000
    C500     C        0.20893    0.09987    0.96931    1.000
    C501     C        0.16393    0.05587    0.97012    1.000
    H452     H        0.15523    0.03707    0.98297    1.000
    C502     C        0.13183    0.03867    0.95312    1.000
    H453     H        0.10163    0.00877    0.95447    1.000
    C503     C        0.14343    0.06487    0.93399    1.000
    C504     C        0.18873    0.10727    0.93230    1.000
    H454     H        0.19813    0.12517    0.91917    1.000
    C505     C        0.22023    0.12347    0.94954    1.000
    H455     H        0.25123    0.15227    0.94787    1.000
    C506     C        0.10803    0.04597    0.91567    1.000
    O132     O        0.06733    0.00977    0.91890    1.000
    O133     O        0.12153    0.06657    0.89787    1.000
    C507     C        0.20743    0.10727    0.96971    1.000
    C508     C        0.16233    0.10607    0.97074    1.000
    H456     H        0.15333    0.11537    0.98367    1.000
    C509     C        0.13053    0.09177    0.95357    1.000
    H457     H        0.10003    0.09087    0.95487    1.000
    C510     C        0.14363    0.07877    0.93425    1.000
    C511     C        0.18903    0.08247    0.93249    1.000
    H458     H        0.19923    0.07617    0.91907    1.000
    C512     C        0.22003    0.09527    0.95013    1.000
    H459     H        0.25043    0.09587    0.94877    1.000
    C513     C        0.10743    0.06037    0.91617    1.000
    O134     O        0.06673    0.05607    0.91955    1.000
    O135     O        0.12083    0.05317    0.89817    1.000
    Zn10     Zn       0.66667    0.33333    0.25144    1.000
    Zn11     Zn       0.33333    0.66667    0.58477    1.000
    Zn12     Zn       0.00000    0.00000    0.91811    1.000
    O136     O        0.33333    0.66667    0.55282    1.000
    O137     O        0.00000    0.00000    0.88615    1.000
    O138     O        0.66667    0.33333    0.21949    1.000
    Co19     Co       0.48802    0.51212    0.63711    1.000
    Co20     Co       0.51971    0.48044    0.59876    1.000
    Zn13     Zn       0.59921    0.29958    0.45607    1.000
    B19      B        0.45530    0.54620    0.67650    1.000
    O139     O        0.48770    0.58960    0.66475    1.000
    N55      N        0.50840    0.58360    0.64655    1.000
    C514     C        0.54070    0.62500    0.63904    1.000
    H460     H        0.54560    0.65360    0.64630    1.000
    C515     C        0.57070    0.63180    0.62030    1.000
    C516     C        0.56580    0.59260    0.60723    1.000
    C517     C        0.59650    0.60530    0.58860    1.000
    C518     C        0.63250    0.65450    0.58485    1.000
    H461     H        0.65260    0.66230    0.57250    1.000
    C519     C        0.63950    0.69180    0.59867    1.000
    C520     C        0.60830    0.67950    0.61599    1.000
    H462     H        0.61260    0.70490    0.62550    1.000
    C521     C        0.59280    0.56950    0.57340    1.000
    H463     H        0.61150    0.58210    0.56060    1.000
    N56      N        0.56770    0.52350    0.57480    1.000
    O140     O        0.57520    0.50070    0.55754    1.000
    B20      B        0.55180    0.44720    0.55879    1.000
    O141     O        0.48190    0.52060    0.68461    1.000
    N57      N        0.49950    0.50290    0.66919    1.000
    C522     C        0.52110    0.48190    0.67760    1.000
    H464     H        0.52310    0.48310    0.69280    1.000
    C523     C        0.54280    0.45660    0.66706    1.000
    C524     C        0.54450    0.45450    0.64415    1.000
    C525     C        0.56470    0.42690    0.63492    1.000
    C526     C        0.57750    0.39920    0.64866    1.000
    H465     H        0.58960    0.37980    0.64240    1.000
    C527     C        0.57340    0.39890    0.67081    1.000
    C528     C        0.55610    0.42840    0.67979    1.000
    H466     H        0.55330    0.42920    0.69490    1.000
    C529     C        0.57080    0.42390    0.61203    1.000
    H467     H        0.58570    0.40550    0.60770    1.000
    N58      N        0.55850    0.44290    0.59710    1.000
    O142     O        0.56920    0.43070    0.57730    1.000
    O143     O        0.41020    0.51170    0.66458    1.000
    N59      N        0.41630    0.49110    0.64695    1.000
    C530     C        0.37510    0.45810    0.63941    1.000
    H468     H        0.34660    0.45230    0.64710    1.000
    C531     C        0.36760    0.42890    0.62046    1.000
    C532     C        0.40710    0.43460    0.60699    1.000
    C533     C        0.39450    0.40230    0.58907    1.000
    C534     C        0.34600    0.36690    0.58572    1.000
    H469     H        0.33880    0.34550    0.57380    1.000
    C535     C        0.30700    0.36060    0.59854    1.000
    C536     C        0.31940    0.39240    0.61577    1.000
    H470     H        0.29380    0.38930    0.62490    1.000
    C537     C        0.43030    0.40400    0.57390    1.000
    H471     H        0.41800    0.38250    0.56190    1.000
    N60      N        0.47620    0.43110    0.57511    1.000
    O144     O        0.49820    0.42250    0.55777    1.000
    C538     C        0.56920    0.43160    0.53770    1.000
    C539     C        0.61340    0.46170    0.52784    1.000
    H472     H        0.63390    0.49370    0.53350    1.000
    C540     C        0.62920    0.44710    0.51004    1.000
    H473     H        0.66030    0.46850    0.50390    1.000
    C541     C        0.59940    0.40110    0.50130    1.000
    C542     C        0.55430    0.37090    0.51036    1.000
    H474     H        0.53330    0.33950    0.50430    1.000
    C543     C        0.53940    0.38590    0.52831    1.000
    H475     H        0.50810    0.36450    0.53440    1.000
    O145     O        0.53370    0.54850    0.61089    1.000
    C544     C        0.68090    0.74460    0.59460    1.000
    C545     C        0.69510    0.77870    0.61360    1.000
    H476     H        0.66570    0.77720    0.61970    1.000
    H477     H        0.71800    0.81230    0.60890    1.000
    H478     H        0.71080    0.76870    0.62450    1.000
    C546     C        0.72640    0.74750    0.58560    1.000
    H479     H        0.71780    0.72560    0.57320    1.000
    H480     H        0.74200    0.73770    0.59660    1.000
    H481     H        0.74920    0.78130    0.58110    1.000
    C547     C        0.65940    0.76160    0.57630    1.000
    H482     H        0.62930    0.76040    0.58130    1.000
    H483     H        0.65200    0.73980    0.56390    1.000
    H484     H        0.68350    0.79520    0.57210    1.000
    O146     O        0.52550    0.47400    0.63189    1.000
    C548     C        0.58610    0.36710    0.68530    1.000
    C549     C        0.54500    0.33640    0.70040    1.000
    H485     H        0.53620    0.35760    0.70850    1.000
    H486     H        0.55540    0.31930    0.71030    1.000
    H487     H        0.51640    0.31240    0.69220    1.000
    C550     C        0.63130    0.40570    0.69850    1.000
    H488     H        0.65830    0.42590    0.68870    1.000
    H489     H        0.64160    0.38870    0.70850    1.000
    H490     H        0.62210    0.42670    0.70650    1.000
    C551     C        0.60100    0.33540    0.67220    1.000
    H491     H        0.62790    0.35630    0.66250    1.000
    H492     H        0.57290    0.31130    0.66380    1.000
    H493     H        0.61180    0.31820    0.68200    1.000
    O147     O        0.45170    0.46700    0.61106    1.000
    C552     C        0.25430    0.32120    0.59320    1.000
    C553     C        0.21830    0.30620    0.61100    1.000
    H494     H        0.22180    0.33540    0.61820    1.000
    H495     H        0.22420    0.28620    0.62130    1.000
    H496     H        0.18500    0.28700    0.60520    1.000
    C554     C        0.23660    0.34390    0.57580    1.000
    H497     H        0.25930    0.35450    0.56360    1.000
    H498     H        0.23560    0.37220    0.58170    1.000
    H499     H        0.20370    0.31930    0.57090    1.000
    C555     C        0.24880    0.27590    0.58210    1.000
    H500     H        0.27260    0.28580    0.57040    1.000
    H501     H        0.21550    0.25670    0.57630    1.000
    H502     H        0.25470    0.25600    0.59240    1.000
    C556     C        0.61690    0.38400    0.48243    1.000
    O148     O        0.65811    0.41320    0.47531    1.000
    O149     O        0.58711    0.34220    0.47540    1.000
    C557     C        0.43320    0.55760    0.69736    1.000
    C558     C        0.38920    0.55860    0.69655    1.000
    H503     H        0.37040    0.54850    0.68370    1.000
    C559     C        0.37200    0.57350    0.71355    1.000
    H504     H        0.34210    0.57380    0.71220    1.000
    C560     C        0.39820    0.58810    0.73268    1.000
    C561     C        0.44060    0.58520    0.73437    1.000
    H505     H        0.45850    0.59370    0.74750    1.000
    C562     C        0.45680    0.56990    0.71713    1.000
    H506     H        0.48560    0.56770    0.71880    1.000
    C563     C        0.37930    0.60460    0.75100    1.000
    O150     O        0.34310    0.60910    0.74777    1.000
    O151     O        0.39990    0.61170    0.76880    1.000
    C564     C        0.44060    0.56650    0.69696    1.000
    C565     C        0.43940    0.61040    0.69593    1.000
    H507     H        0.44870    0.62870    0.68300    1.000
    C566     C        0.42510    0.62790    0.71310    1.000
    H508     H        0.42420    0.65750    0.71180    1.000
    C567     C        0.41210    0.60180    0.73242    1.000
    C568     C        0.41580    0.56010    0.73418    1.000
    H509     H        0.40950    0.54360    0.74760    1.000
    C569     C        0.42860    0.54190    0.71654    1.000
    H510     H        0.42920    0.51210    0.71790    1.000
    C570     C        0.39370    0.61960    0.75050    1.000
    O152     O        0.38940    0.65600    0.74712    1.000
    O153     O        0.38650    0.59900    0.76850    1.000
    Co21     Co       0.15469    0.84545    0.97044    1.000
    Co22     Co       0.18638    0.81377    0.93209    1.000
    Zn14     Zn       0.26588    0.63291    0.78940    1.000
    B21      B        0.12197    0.87953    0.00983    1.000
    O154     O        0.15437    0.92293    0.99808    1.000
    N61      N        0.17507    0.91693    0.97988    1.000
    C571     C        0.20737    0.95833    0.97237    1.000
    H511     H        0.21227    0.98693    0.97963    1.000
    C572     C        0.23737    0.96513    0.95363    1.000
    C573     C        0.23247    0.92593    0.94056    1.000
    C574     C        0.26317    0.93863    0.92193    1.000
    C575     C        0.29917    0.98783    0.91818    1.000
    H512     H        0.31927    0.99563    0.90583    1.000
    C576     C        0.30617    0.02513    0.93200    1.000
    C577     C        0.27497    0.01283    0.94932    1.000
    H513     H        0.27927    0.03823    0.95883    1.000
    C578     C        0.25947    0.90283    0.90673    1.000
    H514     H        0.27817    0.91543    0.89393    1.000
    N62      N        0.23437    0.85683    0.90813    1.000
    O155     O        0.24187    0.83403    0.89087    1.000
    B22      B        0.21847    0.78053    0.89212    1.000
    O156     O        0.14857    0.85393    0.01794    1.000
    N63      N        0.16617    0.83623    0.00252    1.000
    C579     C        0.18777    0.81523    0.01093    1.000
    H515     H        0.18977    0.81643    0.02613    1.000
    C580     C        0.20947    0.78993    0.00039    1.000
    C581     C        0.21117    0.78783    0.97748    1.000
    C582     C        0.23137    0.76023    0.96825    1.000
    C583     C        0.24417    0.73253    0.98199    1.000
    H516     H        0.25627    0.71313    0.97573    1.000
    C584     C        0.24007    0.73223    0.00414    1.000
    C585     C        0.22277    0.76173    0.01312    1.000
    H517     H        0.21997    0.76253    0.02823    1.000
    C586     C        0.23747    0.75723    0.94536    1.000
    H518     H        0.25237    0.73883    0.94103    1.000
    N64      N        0.22517    0.77623    0.93043    1.000
    O157     O        0.23587    0.76403    0.91063    1.000
    O158     O        0.07687    0.84503    0.99791    1.000
    N65      N        0.08297    0.82443    0.98028    1.000
    C587     C        0.04177    0.79143    0.97274    1.000
    H519     H        0.01327    0.78563    0.98043    1.000
    C588     C        0.03427    0.76223    0.95379    1.000
    C589     C        0.07377    0.76793    0.94032    1.000
    C590     C        0.06117    0.73563    0.92240    1.000
    C591     C        0.01267    0.70023    0.91905    1.000
    H520     H        0.00547    0.67883    0.90713    1.000
    C592     C        0.97367    0.69393    0.93187    1.000
    C593     C        0.98607    0.72573    0.94910    1.000
    H521     H        0.96047    0.72263    0.95823    1.000
    C594     C        0.09697    0.73733    0.90723    1.000
    H522     H        0.08467    0.71583    0.89523    1.000
    N66      N        0.14287    0.76443    0.90844    1.000
    O159     O        0.16487    0.75583    0.89110    1.000
    C595     C        0.23587    0.76493    0.87103    1.000
    C596     C        0.28007    0.79503    0.86117    1.000
    H523     H        0.30057    0.82703    0.86683    1.000
    C597     C        0.29587    0.78043    0.84337    1.000
    H524     H        0.32697    0.80183    0.83723    1.000
    C598     C        0.26607    0.73443    0.83463    1.000
    C599     C        0.22097    0.70423    0.84369    1.000
    H525     H        0.19997    0.67283    0.83763    1.000
    C600     C        0.20607    0.71923    0.86164    1.000
    H526     H        0.17477    0.69783    0.86773    1.000
    O160     O        0.20037    0.88183    0.94422    1.000
    C601     C        0.34757    0.07793    0.92793    1.000
    C602     C        0.36177    0.11203    0.94693    1.000
    H527     H        0.33237    0.11053    0.95303    1.000
    H528     H        0.38467    0.14563    0.94223    1.000
    H529     H        0.37747    0.10203    0.95783    1.000
    C603     C        0.39307    0.08083    0.91893    1.000
    H530     H        0.38447    0.05893    0.90653    1.000
    H531     H        0.40867    0.07103    0.92993    1.000
    H532     H        0.41587    0.11463    0.91443    1.000
    C604     C        0.32607    0.09493    0.90963    1.000
    H533     H        0.29597    0.09373    0.91463    1.000
    H534     H        0.31867    0.07313    0.89723    1.000
    H535     H        0.35017    0.12853    0.90543    1.000
    O161     O        0.19217    0.80733    0.96522    1.000
    C605     C        0.25277    0.70043    0.01863    1.000
    C606     C        0.21167    0.66973    0.03373    1.000
    H536     H        0.20287    0.69093    0.04183    1.000
    H537     H        0.22207    0.65263    0.04363    1.000
    H538     H        0.18307    0.64573    0.02553    1.000
    C607     C        0.29797    0.73903    0.03183    1.000
    H539     H        0.32497    0.75923    0.02203    1.000
    H540     H        0.30827    0.72203    0.04183    1.000
    H541     H        0.28877    0.76003    0.03983    1.000
    C608     C        0.26767    0.66873    0.00553    1.000
    H542     H        0.29457    0.68963    0.99583    1.000
    H543     H        0.23957    0.64463    0.99713    1.000
    H544     H        0.27847    0.65153    0.01533    1.000
    O162     O        0.11837    0.80033    0.94439    1.000
    C609     C        0.92097    0.65453    0.92653    1.000
    C610     C        0.88497    0.63953    0.94433    1.000
    H545     H        0.88847    0.66873    0.95153    1.000
    H546     H        0.89087    0.61953    0.95463    1.000
    H547     H        0.85167    0.62033    0.93853    1.000
    C611     C        0.90327    0.67723    0.90913    1.000
    H548     H        0.92597    0.68783    0.89693    1.000
    H549     H        0.90227    0.70553    0.91503    1.000
    H550     H        0.87037    0.65263    0.90423    1.000
    C612     C        0.91547    0.60923    0.91543    1.000
    H551     H        0.93927    0.61913    0.90373    1.000
    H552     H        0.88217    0.59003    0.90963    1.000
    H553     H        0.92137    0.58933    0.92573    1.000
    C613     C        0.28357    0.71733    0.81576    1.000
    O163     O        0.32478    0.74653    0.80864    1.000
    O164     O        0.25378    0.67553    0.80873    1.000
    C614     C        0.09987    0.89093    0.03069    1.000
    C615     C        0.05587    0.89193    0.02988    1.000
    H554     H        0.03707    0.88183    0.01703    1.000
    C616     C        0.03867    0.90683    0.04688    1.000
    H555     H        0.00877    0.90713    0.04553    1.000
    C617     C        0.06487    0.92143    0.06601    1.000
    C618     C        0.10727    0.91853    0.06770    1.000
    H556     H        0.12517    0.92703    0.08083    1.000
    C619     C        0.12347    0.90323    0.05046    1.000
    H557     H        0.15227    0.90103    0.05213    1.000
    C620     C        0.04597    0.93793    0.08433    1.000
    O165     O        0.00977    0.94243    0.08110    1.000
    O166     O        0.06657    0.94503    0.10213    1.000
    C621     C        0.10727    0.89983    0.03029    1.000
    C622     C        0.10607    0.94373    0.02926    1.000
    H558     H        0.11537    0.96203    0.01633    1.000
    C623     C        0.09177    0.96123    0.04643    1.000
    H559     H        0.09087    0.99083    0.04513    1.000
    C624     C        0.07877    0.93513    0.06575    1.000
    C625     C        0.08247    0.89343    0.06751    1.000
    H560     H        0.07617    0.87693    0.08093    1.000
    C626     C        0.09527    0.87523    0.04987    1.000
    H561     H        0.09587    0.84543    0.05123    1.000
    C627     C        0.06037    0.95293    0.08383    1.000
    O167     O        0.05607    0.98933    0.08045    1.000
    O168     O        0.05317    0.93233    0.10183    1.000
    Co23     Co       0.82135    0.17879    0.30378    1.000
    Co24     Co       0.85304    0.14711    0.26543    1.000
    Zn15     Zn       0.93254    0.96625    0.12274    1.000
    B23      B        0.78863    0.21287    0.34317    1.000
    O169     O        0.82103    0.25627    0.33142    1.000
    N67      N        0.84173    0.25027    0.31322    1.000
    C628     C        0.87403    0.29167    0.30571    1.000
    H562     H        0.87893    0.32027    0.31297    1.000
    C629     C        0.90403    0.29847    0.28697    1.000
    C630     C        0.89913    0.25927    0.27390    1.000
    C631     C        0.92983    0.27197    0.25527    1.000
    C632     C        0.96583    0.32117    0.25152    1.000
    H563     H        0.98593    0.32897    0.23917    1.000
    C633     C        0.97283    0.35847    0.26534    1.000
    C634     C        0.94163    0.34617    0.28266    1.000
    H564     H        0.94593    0.37157    0.29217    1.000
    C635     C        0.92613    0.23617    0.24007    1.000
    H565     H        0.94483    0.24877    0.22727    1.000
    N68      N        0.90103    0.19017    0.24147    1.000
    O170     O        0.90853    0.16737    0.22421    1.000
    B24      B        0.88513    0.11387    0.22546    1.000
    O171     O        0.81523    0.18727    0.35128    1.000
    N69      N        0.83283    0.16957    0.33586    1.000
    C636     C        0.85443    0.14857    0.34427    1.000
    H566     H        0.85643    0.14977    0.35947    1.000
    C637     C        0.87613    0.12327    0.33373    1.000
    C638     C        0.87783    0.12117    0.31082    1.000
    C639     C        0.89803    0.09357    0.30159    1.000
    C640     C        0.91083    0.06587    0.31533    1.000
    H567     H        0.92293    0.04647    0.30907    1.000
    C641     C        0.90673    0.06557    0.33748    1.000
    C642     C        0.88943    0.09507    0.34646    1.000
    H568     H        0.88663    0.09587    0.36157    1.000
    C643     C        0.90413    0.09057    0.27870    1.000
    H569     H        0.91903    0.07217    0.27437    1.000
    N70      N        0.89183    0.10957    0.26377    1.000
    O172     O        0.90253    0.09737    0.24397    1.000
    O173     O        0.74353    0.17837    0.33125    1.000
    N71      N        0.74963    0.15777    0.31362    1.000
    C644     C        0.70843    0.12477    0.30608    1.000
    H570     H        0.67993    0.11897    0.31377    1.000
    C645     C        0.70093    0.09557    0.28713    1.000
    C646     C        0.74043    0.10127    0.27366    1.000
    C647     C        0.72783    0.06897    0.25574    1.000
    C648     C        0.67933    0.03357    0.25239    1.000
    H571     H        0.67213    0.01217    0.24047    1.000
    C649     C        0.64033    0.02727    0.26521    1.000
    C650     C        0.65273    0.05907    0.28244    1.000
    H572     H        0.62713    0.05597    0.29157    1.000
    C651     C        0.76363    0.07067    0.24057    1.000
    H573     H        0.75133    0.04917    0.22857    1.000
    N72      N        0.80953    0.09777    0.24178    1.000
    O174     O        0.83153    0.08917    0.22444    1.000
    C652     C        0.90253    0.09827    0.20437    1.000
    C653     C        0.94673    0.12837    0.19451    1.000
    H574     H        0.96723    0.16037    0.20017    1.000
    C654     C        0.96253    0.11377    0.17671    1.000
    H575     H        0.99363    0.13517    0.17057    1.000
    C655     C        0.93273    0.06777    0.16797    1.000
    C656     C        0.88763    0.03757    0.17703    1.000
    H576     H        0.86663    0.00617    0.17097    1.000
    C657     C        0.87273    0.05257    0.19498    1.000
    H577     H        0.84143    0.03117    0.20107    1.000
    O175     O        0.86703    0.21517    0.27756    1.000
    C658     C        0.01423    0.41127    0.26127    1.000
    C659     C        0.02843    0.44537    0.28027    1.000
    H578     H        0.99903    0.44387    0.28637    1.000
    H579     H        0.05133    0.47897    0.27557    1.000
    H580     H        0.04413    0.43537    0.29117    1.000
    C660     C        0.05973    0.41417    0.25227    1.000
    H581     H        0.05113    0.39227    0.23987    1.000
    H582     H        0.07533    0.40437    0.26327    1.000
    H583     H        0.08253    0.44797    0.24777    1.000
    C661     C        0.99273    0.42827    0.24297    1.000
    H584     H        0.96263    0.42707    0.24797    1.000
    H585     H        0.98533    0.40647    0.23057    1.000
    H586     H        0.01683    0.46187    0.23877    1.000
    O176     O        0.85883    0.14067    0.29856    1.000
    C662     C        0.91943    0.03377    0.35197    1.000
    C663     C        0.87833    0.00307    0.36707    1.000
    H587     H        0.86953    0.02427    0.37517    1.000
    H588     H        0.88873    0.98597    0.37697    1.000
    H589     H        0.84973    0.97907    0.35887    1.000
    C664     C        0.96463    0.07237    0.36517    1.000
    H590     H        0.99163    0.09257    0.35537    1.000
    H591     H        0.97493    0.05537    0.37517    1.000
    H592     H        0.95543    0.09337    0.37317    1.000
    C665     C        0.93433    0.00207    0.33887    1.000
    H593     H        0.96123    0.02297    0.32917    1.000
    H594     H        0.90623    0.97797    0.33047    1.000
    H595     H        0.94513    0.98487    0.34867    1.000
    O177     O        0.78503    0.13367    0.27773    1.000
    C666     C        0.58763    0.98787    0.25987    1.000
    C667     C        0.55163    0.97287    0.27767    1.000
    H596     H        0.55513    0.00207    0.28487    1.000
    H597     H        0.55753    0.95287    0.28797    1.000
    H598     H        0.51833    0.95367    0.27187    1.000
    C668     C        0.56993    0.01057    0.24247    1.000
    H599     H        0.59263    0.02117    0.23027    1.000
    H600     H        0.56893    0.03887    0.24837    1.000
    H601     H        0.53703    0.98597    0.23757    1.000
    C669     C        0.58213    0.94257    0.24877    1.000
    H602     H        0.60593    0.95247    0.23707    1.000
    H603     H        0.54883    0.92337    0.24297    1.000
    H604     H        0.58803    0.92267    0.25907    1.000
    C670     C        0.95023    0.05067    0.14910    1.000
    O178     O        0.99144    0.07987    0.14198    1.000
    O179     O        0.92044    0.00887    0.14207    1.000
    C671     C        0.76653    0.22427    0.36403    1.000
    C672     C        0.72253    0.22527    0.36322    1.000
    H605     H        0.70373    0.21517    0.35037    1.000
    C673     C        0.70533    0.24017    0.38022    1.000
    H606     H        0.67543    0.24047    0.37887    1.000
    C674     C        0.73153    0.25477    0.39935    1.000
    C675     C        0.77393    0.25187    0.40104    1.000
    H607     H        0.79183    0.26037    0.41417    1.000
    C676     C        0.79013    0.23657    0.38380    1.000
    H608     H        0.81893    0.23437    0.38547    1.000
    C677     C        0.71263    0.27127    0.41767    1.000
    O180     O        0.67643    0.27577    0.41444    1.000
    O181     O        0.73323    0.27837    0.43547    1.000
    C678     C        0.77393    0.23317    0.36363    1.000
    C679     C        0.77273    0.27707    0.36260    1.000
    H609     H        0.78203    0.29537    0.34967    1.000
    C680     C        0.75843    0.29457    0.37977    1.000
    H610     H        0.75753    0.32417    0.37847    1.000
    C681     C        0.74543    0.26847    0.39909    1.000
    C682     C        0.74913    0.22677    0.40085    1.000
    H611     H        0.74283    0.21027    0.41427    1.000
    C683     C        0.76193    0.20857    0.38321    1.000
    H612     H        0.76253    0.17877    0.38457    1.000
    C684     C        0.72703    0.28627    0.41717    1.000
    O182     O        0.72273    0.32267    0.41379    1.000
    O183     O        0.71983    0.26567    0.43517    1.000
    Co25     Co       0.48788    0.97590    0.63711    1.000
    Co26     Co       0.51956    0.03927    0.59876    1.000
    Zn16     Zn       0.70042    0.29963    0.45607    1.000
    B25      B        0.45380    0.90910    0.67650    1.000
    O184     O        0.41040    0.89810    0.66475    1.000
    N73      N        0.41640    0.92480    0.64655    1.000
    C685     C        0.37500    0.91570    0.63904    1.000
    H613     H        0.34640    0.89200    0.64630    1.000
    C686     C        0.36820    0.93890    0.62030    1.000
    C687     C        0.40740    0.97320    0.60723    1.000
    C688     C        0.39470    0.99120    0.58860    1.000
    C689     C        0.34550    0.97800    0.58485    1.000
    H614     H        0.33770    0.99030    0.57250    1.000
    C690     C        0.30820    0.94770    0.59867    1.000
    C691     C        0.32050    0.92880    0.61599    1.000
    H615     H        0.29510    0.90770    0.62550    1.000
    C692     C        0.43050    0.02330    0.57340    1.000
    H616     H        0.41790    0.02940    0.56060    1.000
    N74      N        0.47650    0.04420    0.57480    1.000
    O185     O        0.49930    0.07450    0.55754    1.000
    B26      B        0.55280    0.10460    0.55879    1.000
    O186     O        0.47940    0.96130    0.68461    1.000
    N75      N        0.49710    0.99660    0.66919    1.000
    C693     C        0.51810    0.03920    0.67760    1.000
    H617     H        0.51690    0.04000    0.69280    1.000
    C694     C        0.54340    0.08620    0.66706    1.000
    C695     C        0.54550    0.09000    0.64415    1.000
    C696     C        0.57310    0.13780    0.63492    1.000
    C697     C        0.60080    0.17830    0.64866    1.000
    H618     H        0.62020    0.20980    0.64240    1.000
    C698     C        0.60110    0.17450    0.67081    1.000
    C699     C        0.57160    0.12770    0.67979    1.000
    H619     H        0.57080    0.12410    0.69490    1.000
    C700     C        0.57610    0.14690    0.61203    1.000
    H620     H        0.59450    0.18020    0.60770    1.000
    N76      N        0.55710    0.11560    0.59710    1.000
    O187     O        0.56930    0.13850    0.57730    1.000
    O188     O        0.48830    0.89850    0.66458    1.000
    N77      N        0.50890    0.92520    0.64695    1.000
    C701     C        0.54190    0.91700    0.63941    1.000
    H621     H        0.54770    0.89430    0.64710    1.000
    C702     C        0.57110    0.93870    0.62046    1.000
    C703     C        0.56540    0.97250    0.60699    1.000
    C704     C        0.59770    0.99220    0.58907    1.000
    C705     C        0.63310    0.97910    0.58572    1.000
    H622     H        0.65450    0.99330    0.57380    1.000
    C706     C        0.63940    0.94640    0.59854    1.000
    C707     C        0.60760    0.92700    0.61577    1.000
    H623     H        0.61070    0.90450    0.62490    1.000
    C708     C        0.59600    0.02630    0.57390    1.000
    H624     H        0.61750    0.03550    0.56190    1.000
    N78      N        0.56890    0.04510    0.57511    1.000
    O189     O        0.57750    0.07570    0.55777    1.000
    C709     C        0.56840    0.13760    0.53770    1.000
    C710     C        0.53830    0.15170    0.52784    1.000
    H625     H        0.50630    0.14020    0.53350    1.000
    C711     C        0.55290    0.18210    0.51004    1.000
    H626     H        0.53150    0.19180    0.50390    1.000
    C712     C        0.59890    0.19830    0.50130    1.000
    C713     C        0.62910    0.18340    0.51036    1.000
    H627     H        0.66050    0.19380    0.50430    1.000
    C714     C        0.61410    0.15350    0.52831    1.000
    H628     H        0.63550    0.14360    0.53440    1.000
    O190     O        0.45150    0.98520    0.61089    1.000
    C715     C        0.25540    0.93630    0.59460    1.000
    C716     C        0.22130    0.91640    0.61360    1.000
    H629     H        0.22280    0.88850    0.61970    1.000
    H630     H        0.18770    0.90570    0.60890    1.000
    H631     H        0.23130    0.94210    0.62450    1.000
    C717     C        0.25250    0.97890    0.58560    1.000
    H632     H        0.27440    0.99220    0.57320    1.000
    H633     H        0.26230    0.00430    0.59660    1.000
    H634     H        0.21870    0.96790    0.58110    1.000
    C718     C        0.23840    0.89780    0.57630    1.000
    H635     H        0.23960    0.86890    0.58130    1.000
    H636     H        0.26020    0.91220    0.56390    1.000
    H637     H        0.20480    0.88830    0.57210    1.000
    O191     O        0.52600    0.05150    0.63189    1.000
    C719     C        0.63290    0.21900    0.68530    1.000
    C720     C        0.66360    0.20860    0.70040    1.000
    H638     H        0.64240    0.17860    0.70850    1.000
    H639     H        0.68070    0.23610    0.71030    1.000
    H640     H        0.68760    0.20400    0.69220    1.000
    C721     C        0.59430    0.22560    0.69850    1.000
    H641     H        0.57410    0.23240    0.68870    1.000
    H642     H        0.61130    0.25290    0.70850    1.000
    H643     H        0.57330    0.19540    0.70650    1.000
    C722     C        0.66460    0.26560    0.67220    1.000
    H644     H        0.64370    0.27160    0.66250    1.000
    H645     H        0.68870    0.26160    0.66380    1.000
    H646     H        0.68180    0.29360    0.68200    1.000
    O192     O        0.53300    0.98470    0.61106    1.000
    C723     C        0.67880    0.93310    0.59320    1.000
    C724     C        0.69380    0.91210    0.61100    1.000
    H647     H        0.66460    0.88640    0.61820    1.000
    H648     H        0.71380    0.93800    0.62130    1.000
    H649     H        0.71300    0.89800    0.60520    1.000
    C725     C        0.65610    0.89270    0.57580    1.000
    H650     H        0.64550    0.90480    0.56360    1.000
    H651     H        0.62780    0.86340    0.58170    1.000
    H652     H        0.68070    0.88440    0.57090    1.000
    C726     C        0.72410    0.97290    0.58210    1.000
    H653     H        0.71420    0.98680    0.57040    1.000
    H654     H        0.74330    0.95880    0.57630    1.000
    H655     H        0.74400    0.99870    0.59240    1.000
    C727     C        0.61600    0.23290    0.48243    1.000
    O193     O        0.58680    0.24491    0.47531    1.000
    O194     O        0.65780    0.24491    0.47540    1.000
    C728     C        0.44240    0.87560    0.69736    1.000
    C729     C        0.44140    0.83060    0.69655    1.000
    H656     H        0.45150    0.82190    0.68370    1.000
    C730     C        0.42650    0.79850    0.71355    1.000
    H657     H        0.42620    0.76830    0.71220    1.000
    C731     C        0.41190    0.81010    0.73268    1.000
    C732     C        0.41480    0.85540    0.73437    1.000
    H658     H        0.40630    0.86480    0.74750    1.000
    C733     C        0.43010    0.88690    0.71713    1.000
    H659     H        0.43230    0.91790    0.71880    1.000
    C734     C        0.39540    0.77470    0.75100    1.000
    O195     O        0.39090    0.73400    0.74777    1.000
    O196     O        0.38830    0.78820    0.76880    1.000
    C735     C        0.43350    0.87410    0.69696    1.000
    C736     C        0.38960    0.82900    0.69593    1.000
    H660     H        0.37130    0.82000    0.68300    1.000
    C737     C        0.37210    0.79720    0.71310    1.000
    H661     H        0.34250    0.76670    0.71180    1.000
    C738     C        0.39820    0.81030    0.73242    1.000
    C739     C        0.43990    0.85570    0.73418    1.000
    H662     H        0.45640    0.86590    0.74760    1.000
    C740     C        0.45810    0.88670    0.71654    1.000
    H663     H        0.48790    0.91710    0.71790    1.000
    C741     C        0.38040    0.77410    0.75050    1.000
    O197     O        0.34400    0.73340    0.74712    1.000
    O198     O        0.40100    0.78750    0.76850    1.000
    Co27     Co       0.15455    0.30923    0.97044    1.000
    Co28     Co       0.18623    0.37260    0.93209    1.000
    Zn17     Zn       0.36709    0.63296    0.78940    1.000
    B27      B        0.12047    0.24243    0.00983    1.000
    O199     O        0.07707    0.23143    0.99808    1.000
    N79      N        0.08307    0.25813    0.97988    1.000
    C742     C        0.04167    0.24903    0.97237    1.000
    H664     H        0.01307    0.22533    0.97963    1.000
    C743     C        0.03487    0.27223    0.95363    1.000
    C744     C        0.07407    0.30653    0.94056    1.000
    C745     C        0.06137    0.32453    0.92193    1.000
    C746     C        0.01217    0.31133    0.91818    1.000
    H665     H        0.00437    0.32363    0.90583    1.000
    C747     C        0.97487    0.28103    0.93200    1.000
    C748     C        0.98717    0.26213    0.94932    1.000
    H666     H        0.96177    0.24103    0.95883    1.000
    C749     C        0.09717    0.35663    0.90673    1.000
    H667     H        0.08457    0.36273    0.89393    1.000
    N80      N        0.14317    0.37753    0.90813    1.000
    O200     O        0.16597    0.40783    0.89087    1.000
    B28      B        0.21947    0.43793    0.89212    1.000
    O201     O        0.14607    0.29463    0.01794    1.000
    N81      N        0.16377    0.32993    0.00252    1.000
    C750     C        0.18477    0.37253    0.01093    1.000
    H668     H        0.18357    0.37333    0.02613    1.000
    C751     C        0.21007    0.41953    0.00039    1.000
    C752     C        0.21217    0.42333    0.97748    1.000
    C753     C        0.23977    0.47113    0.96825    1.000
    C754     C        0.26747    0.51163    0.98199    1.000
    H669     H        0.28687    0.54313    0.97573    1.000
    C755     C        0.26777    0.50783    0.00414    1.000
    C756     C        0.23827    0.46103    0.01312    1.000
    H670     H        0.23747    0.45743    0.02823    1.000
    C757     C        0.24277    0.48023    0.94536    1.000
    H671     H        0.26117    0.51353    0.94103    1.000
    N82      N        0.22377    0.44893    0.93043    1.000
    O202     O        0.23597    0.47183    0.91063    1.000
    O203     O        0.15497    0.23183    0.99791    1.000
    N83      N        0.17557    0.25853    0.98028    1.000
    C758     C        0.20857    0.25033    0.97274    1.000
    H672     H        0.21437    0.22763    0.98043    1.000
    C759     C        0.23777    0.27203    0.95379    1.000
    C760     C        0.23207    0.30583    0.94032    1.000
    C761     C        0.26437    0.32553    0.92240    1.000
    C762     C        0.29977    0.31243    0.91905    1.000
    H673     H        0.32117    0.32663    0.90713    1.000
    C763     C        0.30607    0.27973    0.93187    1.000
    C764     C        0.27427    0.26033    0.94910    1.000
    H674     H        0.27737    0.23783    0.95823    1.000
    C765     C        0.26267    0.35963    0.90723    1.000
    H675     H        0.28417    0.36883    0.89523    1.000
    N84      N        0.23557    0.37843    0.90844    1.000
    O204     O        0.24417    0.40903    0.89110    1.000
    C766     C        0.23507    0.47093    0.87103    1.000
    C767     C        0.20497    0.48503    0.86117    1.000
    H676     H        0.17297    0.47353    0.86683    1.000
    C768     C        0.21957    0.51543    0.84337    1.000
    H677     H        0.19817    0.52513    0.83723    1.000
    C769     C        0.26557    0.53163    0.83463    1.000
    C770     C        0.29577    0.51673    0.84369    1.000
    H678     H        0.32717    0.52713    0.83763    1.000
    C771     C        0.28077    0.48683    0.86164    1.000
    H679     H        0.30217    0.47693    0.86773    1.000
    O205     O        0.11817    0.31853    0.94422    1.000
    C772     C        0.92207    0.26963    0.92793    1.000
    C773     C        0.88797    0.24973    0.94693    1.000
    H680     H        0.88947    0.22183    0.95303    1.000
    H681     H        0.85437    0.23903    0.94223    1.000
    H682     H        0.89797    0.27543    0.95783    1.000
    C774     C        0.91917    0.31223    0.91893    1.000
    H683     H        0.94107    0.32553    0.90653    1.000
    H684     H        0.92897    0.33763    0.92993    1.000
    H685     H        0.88537    0.30123    0.91443    1.000
    C775     C        0.90507    0.23113    0.90963    1.000
    H686     H        0.90627    0.20223    0.91463    1.000
    H687     H        0.92687    0.24553    0.89723    1.000
    H688     H        0.87147    0.22163    0.90543    1.000
    O206     O        0.19267    0.38483    0.96522    1.000
    C776     C        0.29957    0.55233    0.01863    1.000
    C777     C        0.33027    0.54193    0.03373    1.000
    H689     H        0.30907    0.51193    0.04183    1.000
    H690     H        0.34737    0.56943    0.04363    1.000
    H691     H        0.35427    0.53733    0.02553    1.000
    C778     C        0.26097    0.55893    0.03183    1.000
    H692     H        0.24077    0.56573    0.02203    1.000
    H693     H        0.27797    0.58623    0.04183    1.000
    H694     H        0.23997    0.52873    0.03983    1.000
    C779     C        0.33127    0.59893    0.00553    1.000
    H695     H        0.31037    0.60493    0.99583    1.000
    H696     H        0.35537    0.59493    0.99713    1.000
    H697     H        0.34847    0.62693    0.01533    1.000
    O207     O        0.19967    0.31803    0.94439    1.000
    C780     C        0.34547    0.26643    0.92653    1.000
    C781     C        0.36047    0.24543    0.94433    1.000
    H698     H        0.33127    0.21973    0.95153    1.000
    H699     H        0.38047    0.27133    0.95463    1.000
    H700     H        0.37967    0.23133    0.93853    1.000
    C782     C        0.32277    0.22603    0.90913    1.000
    H701     H        0.31217    0.23813    0.89693    1.000
    H702     H        0.29447    0.19673    0.91503    1.000
    H703     H        0.34737    0.21773    0.90423    1.000
    C783     C        0.39077    0.30623    0.91543    1.000
    H704     H        0.38087    0.32013    0.90373    1.000
    H705     H        0.40997    0.29213    0.90963    1.000
    H706     H        0.41067    0.33203    0.92573    1.000
    C784     C        0.28267    0.56623    0.81576    1.000
    O208     O        0.25347    0.57824    0.80864    1.000
    O209     O        0.32447    0.57824    0.80873    1.000
    C785     C        0.10907    0.20893    0.03069    1.000
    C786     C        0.10807    0.16393    0.02988    1.000
    H707     H        0.11817    0.15523    0.01703    1.000
    C787     C        0.09317    0.13183    0.04688    1.000
    H708     H        0.09287    0.10163    0.04553    1.000
    C788     C        0.07857    0.14343    0.06601    1.000
    C789     C        0.08147    0.18873    0.06770    1.000
    H709     H        0.07297    0.19813    0.08083    1.000
    C790     C        0.09677    0.22023    0.05046    1.000
    H710     H        0.09897    0.25123    0.05213    1.000
    C791     C        0.06207    0.10803    0.08433    1.000
    O210     O        0.05757    0.06733    0.08110    1.000
    O211     O        0.05497    0.12153    0.10213    1.000
    C792     C        0.10017    0.20743    0.03029    1.000
    C793     C        0.05627    0.16233    0.02926    1.000
    H711     H        0.03797    0.15333    0.01633    1.000
    C794     C        0.03877    0.13053    0.04643    1.000
    H712     H        0.00917    0.10003    0.04513    1.000
    C795     C        0.06487    0.14363    0.06575    1.000
    C796     C        0.10657    0.18903    0.06751    1.000
    H713     H        0.12307    0.19923    0.08093    1.000
    C797     C        0.12477    0.22003    0.04987    1.000
    H714     H        0.15457    0.25043    0.05123    1.000
    C798     C        0.04707    0.10743    0.08383    1.000
    O212     O        0.01067    0.06673    0.08045    1.000
    O213     O        0.06767    0.12083    0.10183    1.000
    Co29     Co       0.82121    0.64257    0.30378    1.000
    Co30     Co       0.85289    0.70594    0.26543    1.000
    Zn18     Zn       0.03375    0.96630    0.12274    1.000
    B29      B        0.78713    0.57577    0.34317    1.000
    O214     O        0.74373    0.56477    0.33142    1.000
    N85      N        0.74973    0.59147    0.31322    1.000
    C799     C        0.70833    0.58237    0.30571    1.000
    H715     H        0.67973    0.55867    0.31297    1.000
    C800     C        0.70153    0.60557    0.28697    1.000
    C801     C        0.74073    0.63987    0.27390    1.000
    C802     C        0.72803    0.65787    0.25527    1.000
    C803     C        0.67883    0.64467    0.25152    1.000
    H716     H        0.67103    0.65697    0.23917    1.000
    C804     C        0.64153    0.61437    0.26534    1.000
    C805     C        0.65383    0.59547    0.28266    1.000
    H717     H        0.62843    0.57437    0.29217    1.000
    C806     C        0.76383    0.68997    0.24007    1.000
    H718     H        0.75123    0.69607    0.22727    1.000
    N86      N        0.80983    0.71087    0.24147    1.000
    O215     O        0.83263    0.74117    0.22421    1.000
    B30      B        0.88613    0.77127    0.22546    1.000
    O216     O        0.81273    0.62797    0.35128    1.000
    N87      N        0.83043    0.66327    0.33586    1.000
    C807     C        0.85143    0.70587    0.34427    1.000
    H719     H        0.85023    0.70667    0.35947    1.000
    C808     C        0.87673    0.75287    0.33373    1.000
    C809     C        0.87883    0.75667    0.31082    1.000
    C810     C        0.90643    0.80447    0.30159    1.000
    C811     C        0.93413    0.84497    0.31533    1.000
    H720     H        0.95353    0.87647    0.30907    1.000
    C812     C        0.93443    0.84117    0.33748    1.000
    C813     C        0.90493    0.79437    0.34646    1.000
    H721     H        0.90413    0.79077    0.36157    1.000
    C814     C        0.90943    0.81357    0.27870    1.000
    H722     H        0.92783    0.84687    0.27437    1.000
    N88      N        0.89043    0.78227    0.26377    1.000
    O217     O        0.90263    0.80517    0.24397    1.000
    O218     O        0.82163    0.56517    0.33125    1.000
    N89      N        0.84223    0.59187    0.31362    1.000
    C815     C        0.87523    0.58367    0.30608    1.000
    H723     H        0.88103    0.56097    0.31377    1.000
    C816     C        0.90443    0.60537    0.28713    1.000
    C817     C        0.89873    0.63917    0.27366    1.000
    C818     C        0.93103    0.65887    0.25574    1.000
    C819     C        0.96643    0.64577    0.25239    1.000
    H724     H        0.98783    0.65997    0.24047    1.000
    C820     C        0.97273    0.61307    0.26521    1.000
    C821     C        0.94093    0.59367    0.28244    1.000
    H725     H        0.94403    0.57117    0.29157    1.000
    C822     C        0.92933    0.69297    0.24057    1.000
    H726     H        0.95083    0.70217    0.22857    1.000
    N90      N        0.90223    0.71177    0.24178    1.000
    O219     O        0.91083    0.74237    0.22444    1.000
    C823     C        0.90173    0.80427    0.20437    1.000
    C824     C        0.87163    0.81837    0.19451    1.000
    H727     H        0.83963    0.80687    0.20017    1.000
    C825     C        0.88623    0.84877    0.17671    1.000
    H728     H        0.86483    0.85847    0.17057    1.000
    C826     C        0.93223    0.86497    0.16797    1.000
    C827     C        0.96243    0.85007    0.17703    1.000
    H729     H        0.99383    0.86047    0.17097    1.000
    C828     C        0.94743    0.82017    0.19498    1.000
    H730     H        0.96883    0.81027    0.20107    1.000
    O220     O        0.78483    0.65187    0.27756    1.000
    C829     C        0.58873    0.60297    0.26127    1.000
    C830     C        0.55463    0.58307    0.28027    1.000
    H731     H        0.55613    0.55517    0.28637    1.000
    H732     H        0.52103    0.57237    0.27557    1.000
    H733     H        0.56463    0.60877    0.29117    1.000
    C831     C        0.58583    0.64557    0.25227    1.000
    H734     H        0.60773    0.65887    0.23987    1.000
    H735     H        0.59563    0.67097    0.26327    1.000
    H736     H        0.55203    0.63457    0.24777    1.000
    C832     C        0.57173    0.56447    0.24297    1.000
    H737     H        0.57293    0.53557    0.24797    1.000
    H738     H        0.59353    0.57887    0.23057    1.000
    H739     H        0.53813    0.55497    0.23877    1.000
    O221     O        0.85933    0.71817    0.29856    1.000
    C833     C        0.96623    0.88567    0.35197    1.000
    C834     C        0.99693    0.87527    0.36707    1.000
    H740     H        0.97573    0.84527    0.37517    1.000
    H741     H        0.01403    0.90277    0.37697    1.000
    H742     H        0.02093    0.87067    0.35887    1.000
    C835     C        0.92763    0.89227    0.36517    1.000
    H743     H        0.90743    0.89907    0.35537    1.000
    H744     H        0.94463    0.91957    0.37517    1.000
    H745     H        0.90663    0.86207    0.37317    1.000
    C836     C        0.99793    0.93227    0.33887    1.000
    H746     H        0.97703    0.93827    0.32917    1.000
    H747     H        0.02203    0.92827    0.33047    1.000
    H748     H        0.01513    0.96027    0.34867    1.000
    O222     O        0.86633    0.65137    0.27773    1.000
    C837     C        0.01213    0.59977    0.25987    1.000
    C838     C        0.02713    0.57877    0.27767    1.000
    H749     H        0.99793    0.55307    0.28487    1.000
    H750     H        0.04713    0.60467    0.28797    1.000
    H751     H        0.04633    0.56467    0.27187    1.000
    C839     C        0.98943    0.55937    0.24247    1.000
    H752     H        0.97883    0.57147    0.23027    1.000
    H753     H        0.96113    0.53007    0.24837    1.000
    H754     H        0.01403    0.55107    0.23757    1.000
    C840     C        0.05743    0.63957    0.24877    1.000
    H755     H        0.04753    0.65347    0.23707    1.000
    H756     H        0.07663    0.62547    0.24297    1.000
    H757     H        0.07733    0.66537    0.25907    1.000
    C841     C        0.94933    0.89957    0.14910    1.000
    O223     O        0.92013    0.91158    0.14198    1.000
    O224     O        0.99113    0.91158    0.14207    1.000
    C842     C        0.77573    0.54227    0.36403    1.000
    C843     C        0.77473    0.49727    0.36322    1.000
    H758     H        0.78483    0.48857    0.35037    1.000
    C844     C        0.75983    0.46517    0.38022    1.000
    H759     H        0.75953    0.43497    0.37887    1.000
    C845     C        0.74523    0.47677    0.39935    1.000
    C846     C        0.74813    0.52207    0.40104    1.000
    H760     H        0.73963    0.53147    0.41417    1.000
    C847     C        0.76343    0.55357    0.38380    1.000
    H761     H        0.76563    0.58457    0.38547    1.000
    C848     C        0.72873    0.44137    0.41767    1.000
    O225     O        0.72423    0.40067    0.41444    1.000
    O226     O        0.72163    0.45487    0.43547    1.000
    C849     C        0.76683    0.54077    0.36363    1.000
    C850     C        0.72293    0.49567    0.36260    1.000
    H762     H        0.70463    0.48667    0.34967    1.000
    C851     C        0.70543    0.46387    0.37977    1.000
    H763     H        0.67583    0.43337    0.37847    1.000
    C852     C        0.73153    0.47697    0.39909    1.000
    C853     C        0.77323    0.52237    0.40085    1.000
    H764     H        0.78973    0.53257    0.41427    1.000
    C854     C        0.79143    0.55337    0.38321    1.000
    H765     H        0.82123    0.58377    0.38457    1.000
    C855     C        0.71373    0.44077    0.41717    1.000
    O227     O        0.67733    0.40007    0.41379    1.000
    O228     O        0.73433    0.45417    0.43517    1.000
    Co31     Co       0.02410    0.51198    0.63711    1.000
    Co32     Co       0.96073    0.48029    0.59876    1.000
    Zn19     Zn       0.70037    0.40079    0.45607    1.000
    B31      B        0.09090    0.54470    0.67650    1.000
    O229     O        0.10190    0.51230    0.66475    1.000
    N91      N        0.07520    0.49160    0.64655    1.000
    C856     C        0.08430    0.45930    0.63904    1.000
    H766     H        0.10800    0.45440    0.64630    1.000
    C857     C        0.06110    0.42930    0.62030    1.000
    C858     C        0.02680    0.43420    0.60723    1.000
    C859     C        0.00880    0.40350    0.58860    1.000
    C860     C        0.02200    0.36750    0.58485    1.000
    H767     H        0.00970    0.34740    0.57250    1.000
    C861     C        0.05230    0.36050    0.59867    1.000
    C862     C        0.07120    0.39170    0.61599    1.000
    H768     H        0.09230    0.38740    0.62550    1.000
    C863     C        0.97670    0.40720    0.57340    1.000
    H769     H        0.97060    0.38850    0.56060    1.000
    N92      N        0.95580    0.43230    0.57480    1.000
    O230     O        0.92550    0.42480    0.55754    1.000
    B32      B        0.89540    0.44820    0.55879    1.000
    O231     O        0.03870    0.51810    0.68461    1.000
    N93      N        0.00340    0.50050    0.66919    1.000
    C864     C        0.96080    0.47890    0.67760    1.000
    H770     H        0.96000    0.47690    0.69280    1.000
    C865     C        0.91380    0.45720    0.66706    1.000
    C866     C        0.91000    0.45550    0.64415    1.000
    C867     C        0.86220    0.43530    0.63492    1.000
    C868     C        0.82170    0.42250    0.64866    1.000
    H771     H        0.79020    0.41040    0.64240    1.000
    C869     C        0.82550    0.42660    0.67081    1.000
    C870     C        0.87230    0.44390    0.67979    1.000
    H772     H        0.87590    0.44670    0.69490    1.000
    C871     C        0.85310    0.42920    0.61203    1.000
    H773     H        0.81980    0.41430    0.60770    1.000
    N94      N        0.88440    0.44150    0.59710    1.000
    O232     O        0.86150    0.43080    0.57730    1.000
    O233     O        0.10150    0.58980    0.66458    1.000
    N95      N        0.07480    0.58370    0.64695    1.000
    C872     C        0.08300    0.62490    0.63941    1.000
    H774     H        0.10570    0.65340    0.64710    1.000
    C873     C        0.06130    0.63240    0.62046    1.000
    C874     C        0.02750    0.59290    0.60699    1.000
    C875     C        0.00780    0.60550    0.58907    1.000
    C876     C        0.02090    0.65400    0.58572    1.000
    H775     H        0.00670    0.66120    0.57380    1.000
    C877     C        0.05360    0.69300    0.59854    1.000
    C878     C        0.07300    0.68060    0.61577    1.000
    H776     H        0.09550    0.70620    0.62490    1.000
    C879     C        0.97370    0.56970    0.57390    1.000
    H777     H        0.96450    0.58200    0.56190    1.000
    N96      N        0.95490    0.52380    0.57511    1.000
    O234     O        0.92430    0.50180    0.55777    1.000
    C880     C        0.86240    0.43080    0.53770    1.000
    C881     C        0.84830    0.38660    0.52784    1.000
    H778     H        0.85980    0.36610    0.53350    1.000
    C882     C        0.81790    0.37080    0.51004    1.000
    H779     H        0.80820    0.33970    0.50390    1.000
    C883     C        0.80170    0.40060    0.50130    1.000
    C884     C        0.81660    0.44570    0.51036    1.000
    H780     H        0.80620    0.46670    0.50430    1.000
    C885     C        0.84650    0.46060    0.52831    1.000
    H781     H        0.85640    0.49190    0.53440    1.000
    O235     O        0.01480    0.46630    0.61089    1.000
    C886     C        0.06370    0.31910    0.59460    1.000
    C887     C        0.08360    0.30490    0.61360    1.000
    H782     H        0.11150    0.33430    0.61970    1.000
    H783     H        0.09430    0.28200    0.60890    1.000
    H784     H        0.05790    0.28920    0.62450    1.000
    C888     C        0.02110    0.27360    0.58560    1.000
    H785     H        0.00780    0.28220    0.57320    1.000
    H786     H        0.99570    0.25800    0.59660    1.000
    H787     H        0.03210    0.25080    0.58110    1.000
    C889     C        0.10220    0.34060    0.57630    1.000
    H788     H        0.13110    0.37070    0.58130    1.000
    H789     H        0.08780    0.34800    0.56390    1.000
    H790     H        0.11170    0.31650    0.57210    1.000
    O236     O        0.94850    0.47450    0.63189    1.000
    C890     C        0.78100    0.41390    0.68530    1.000
    C891     C        0.79140    0.45500    0.70040    1.000
    H791     H        0.82140    0.46380    0.70850    1.000
    H792     H        0.76390    0.44460    0.71030    1.000
    H793     H        0.79600    0.48360    0.69220    1.000
    C892     C        0.77440    0.36870    0.69850    1.000
    H794     H        0.76760    0.34170    0.68870    1.000
    H795     H        0.74710    0.35840    0.70850    1.000
    H796     H        0.80460    0.37790    0.70650    1.000
    C893     C        0.73440    0.39900    0.67220    1.000
    H797     H        0.72840    0.37210    0.66250    1.000
    H798     H        0.73840    0.42710    0.66380    1.000
    H799     H        0.70640    0.38820    0.68200    1.000
    O237     O        0.01530    0.54830    0.61106    1.000
    C894     C        0.06690    0.74570    0.59320    1.000
    C895     C        0.08790    0.78170    0.61100    1.000
    H800     H        0.11360    0.77820    0.61820    1.000
    H801     H        0.06200    0.77580    0.62130    1.000
    H802     H        0.10200    0.81500    0.60520    1.000
    C896     C        0.10730    0.76340    0.57580    1.000
    H803     H        0.09520    0.74070    0.56360    1.000
    H804     H        0.13660    0.76440    0.58170    1.000
    H805     H        0.11560    0.79630    0.57090    1.000
    C897     C        0.02710    0.75120    0.58210    1.000
    H806     H        0.01320    0.72740    0.57040    1.000
    H807     H        0.04120    0.78450    0.57630    1.000
    H808     H        0.00130    0.74530    0.59240    1.000
    C898     C        0.76710    0.38310    0.48243    1.000
    O238     O        0.75509    0.34189    0.47531    1.000
    O239     O        0.75509    0.41289    0.47540    1.000
    C899     C        0.12440    0.56680    0.69736    1.000
    C900     C        0.16940    0.61080    0.69655    1.000
    H809     H        0.17810    0.62960    0.68370    1.000
    C901     C        0.20150    0.62800    0.71355    1.000
    H810     H        0.23170    0.65790    0.71220    1.000
    C902     C        0.18990    0.60180    0.73268    1.000
    C903     C        0.14460    0.55940    0.73437    1.000
    H811     H        0.13520    0.54150    0.74750    1.000
    C904     C        0.11310    0.54320    0.71713    1.000
    H812     H        0.08210    0.51440    0.71880    1.000
    C905     C        0.22530    0.62070    0.75100    1.000
    O240     O        0.26600    0.65690    0.74777    1.000
    O241     O        0.21180    0.60010    0.76880    1.000
    C906     C        0.12590    0.55940    0.69696    1.000
    C907     C        0.17100    0.56060    0.69593    1.000
    H813     H        0.18000    0.55130    0.68300    1.000
    C908     C        0.20280    0.57490    0.71310    1.000
    H814     H        0.23330    0.57580    0.71180    1.000
    C909     C        0.18970    0.58790    0.73242    1.000
    C910     C        0.14430    0.58420    0.73418    1.000
    H815     H        0.13410    0.59050    0.74760    1.000
    C911     C        0.11330    0.57140    0.71654    1.000
    H816     H        0.08290    0.57080    0.71790    1.000
    C912     C        0.22590    0.60630    0.75050    1.000
    O242     O        0.26660    0.61060    0.74712    1.000
    O243     O        0.21250    0.61350    0.76850    1.000
    Co33     Co       0.69077    0.84531    0.97044    1.000
    Co34     Co       0.62740    0.81362    0.93209    1.000
    Zn20     Zn       0.36704    0.73412    0.78940    1.000
    B33      B        0.75757    0.87803    0.00983    1.000
    O244     O        0.76857    0.84563    0.99808    1.000
    N97      N        0.74187    0.82493    0.97988    1.000
    C913     C        0.75097    0.79263    0.97237    1.000
    H817     H        0.77467    0.78773    0.97963    1.000
    C914     C        0.72777    0.76263    0.95363    1.000
    C915     C        0.69347    0.76753    0.94056    1.000
    C916     C        0.67547    0.73683    0.92193    1.000
    C917     C        0.68867    0.70083    0.91818    1.000
    H818     H        0.67637    0.68073    0.90583    1.000
    C918     C        0.71897    0.69383    0.93200    1.000
    C919     C        0.73787    0.72503    0.94932    1.000
    H819     H        0.75897    0.72073    0.95883    1.000
    C920     C        0.64337    0.74053    0.90673    1.000
    H820     H        0.63727    0.72183    0.89393    1.000
    N98      N        0.62247    0.76563    0.90813    1.000
    O245     O        0.59217    0.75813    0.89087    1.000
    B34      B        0.56207    0.78153    0.89212    1.000
    O246     O        0.70537    0.85143    0.01794    1.000
    N99      N        0.67007    0.83383    0.00252    1.000
    C921     C        0.62747    0.81223    0.01093    1.000
    H821     H        0.62667    0.81023    0.02613    1.000
    C922     C        0.58047    0.79053    0.00039    1.000
    C923     C        0.57667    0.78883    0.97748    1.000
    C924     C        0.52887    0.76863    0.96825    1.000
    C925     C        0.48837    0.75583    0.98199    1.000
    H822     H        0.45687    0.74373    0.97573    1.000
    C926     C        0.49217    0.75993    0.00414    1.000
    C927     C        0.53897    0.77723    0.01312    1.000
    H823     H        0.54257    0.78003    0.02823    1.000
    C928     C        0.51977    0.76253    0.94536    1.000
    H824     H        0.48647    0.74763    0.94103    1.000
    N100     N        0.55107    0.77483    0.93043    1.000
    O247     O        0.52817    0.76413    0.91063    1.000
    O248     O        0.76817    0.92313    0.99791    1.000
    N101     N        0.74147    0.91703    0.98028    1.000
    C929     C        0.74967    0.95823    0.97274    1.000
    H825     H        0.77237    0.98673    0.98043    1.000
    C930     C        0.72797    0.96573    0.95379    1.000
    C931     C        0.69417    0.92623    0.94032    1.000
    C932     C        0.67447    0.93883    0.92240    1.000
    C933     C        0.68757    0.98733    0.91905    1.000
    H826     H        0.67337    0.99453    0.90713    1.000
    C934     C        0.72027    0.02633    0.93187    1.000
    C935     C        0.73967    0.01393    0.94910    1.000
    H827     H        0.76217    0.03953    0.95823    1.000
    C936     C        0.64037    0.90303    0.90723    1.000
    H828     H        0.63117    0.91533    0.89523    1.000
    N102     N        0.62157    0.85713    0.90844    1.000
    O249     O        0.59097    0.83513    0.89110    1.000
    C937     C        0.52907    0.76413    0.87103    1.000
    C938     C        0.51497    0.71993    0.86117    1.000
    H829     H        0.52647    0.69943    0.86683    1.000
    C939     C        0.48457    0.70413    0.84337    1.000
    H830     H        0.47487    0.67303    0.83723    1.000
    C940     C        0.46837    0.73393    0.83463    1.000
    C941     C        0.48327    0.77903    0.84369    1.000
    H831     H        0.47287    0.80003    0.83763    1.000
    C942     C        0.51317    0.79393    0.86164    1.000
    H832     H        0.52307    0.82523    0.86773    1.000
    O250     O        0.68147    0.79963    0.94422    1.000
    C943     C        0.73037    0.65243    0.92793    1.000
    C944     C        0.75027    0.63823    0.94693    1.000
    H833     H        0.77817    0.66763    0.95303    1.000
    H834     H        0.76097    0.61533    0.94223    1.000
    H835     H        0.72457    0.62253    0.95783    1.000
    C945     C        0.68777    0.60693    0.91893    1.000
    H836     H        0.67447    0.61553    0.90653    1.000
    H837     H        0.66237    0.59133    0.92993    1.000
    H838     H        0.69877    0.58413    0.91443    1.000
    C946     C        0.76887    0.67393    0.90963    1.000
    H839     H        0.79777    0.70403    0.91463    1.000
    H840     H        0.75447    0.68133    0.89723    1.000
    H841     H        0.77837    0.64983    0.90543    1.000
    O251     O        0.61517    0.80783    0.96522    1.000
    C947     C        0.44767    0.74723    0.01863    1.000
    C948     C        0.45807    0.78833    0.03373    1.000
    H842     H        0.48807    0.79713    0.04183    1.000
    H843     H        0.43057    0.77793    0.04363    1.000
    H844     H        0.46267    0.81693    0.02553    1.000
    C949     C        0.44107    0.70203    0.03183    1.000
    H845     H        0.43427    0.67503    0.02203    1.000
    H846     H        0.41377    0.69173    0.04183    1.000
    H847     H        0.47127    0.71123    0.03983    1.000
    C950     C        0.40107    0.73233    0.00553    1.000
    H848     H        0.39507    0.70543    0.99583    1.000
    H849     H        0.40507    0.76043    0.99713    1.000
    H850     H        0.37307    0.72153    0.01533    1.000
    O252     O        0.68197    0.88163    0.94439    1.000
    C951     C        0.73357    0.07903    0.92653    1.000
    C952     C        0.75457    0.11503    0.94433    1.000
    H851     H        0.78027    0.11153    0.95153    1.000
    H852     H        0.72867    0.10913    0.95463    1.000
    H853     H        0.76867    0.14833    0.93853    1.000
    C953     C        0.77397    0.09673    0.90913    1.000
    H854     H        0.76187    0.07403    0.89693    1.000
    H855     H        0.80327    0.09773    0.91503    1.000
    H856     H        0.78227    0.12963    0.90423    1.000
    C954     C        0.69377    0.08453    0.91543    1.000
    H857     H        0.67987    0.06073    0.90373    1.000
    H858     H        0.70787    0.11783    0.90963    1.000
    H859     H        0.66797    0.07863    0.92573    1.000
    C955     C        0.43377    0.71643    0.81576    1.000
    O253     O        0.42176    0.67522    0.80864    1.000
    O254     O        0.42176    0.74622    0.80873    1.000
    C956     C        0.79107    0.90013    0.03069    1.000
    C957     C        0.83607    0.94413    0.02988    1.000
    H860     H        0.84477    0.96293    0.01703    1.000
    C958     C        0.86817    0.96133    0.04688    1.000
    H861     H        0.89837    0.99123    0.04553    1.000
    C959     C        0.85657    0.93513    0.06601    1.000
    C960     C        0.81127    0.89273    0.06770    1.000
    H862     H        0.80187    0.87483    0.08083    1.000
    C961     C        0.77977    0.87653    0.05046    1.000
    H863     H        0.74877    0.84773    0.05213    1.000
    C962     C        0.89197    0.95403    0.08433    1.000
    O255     O        0.93267    0.99023    0.08110    1.000
    O256     O        0.87847    0.93343    0.10213    1.000
    C963     C        0.79257    0.89273    0.03029    1.000
    C964     C        0.83767    0.89393    0.02926    1.000
    H864     H        0.84667    0.88463    0.01633    1.000
    C965     C        0.86947    0.90823    0.04643    1.000
    H865     H        0.89997    0.90913    0.04513    1.000
    C966     C        0.85637    0.92123    0.06575    1.000
    C967     C        0.81097    0.91753    0.06751    1.000
    H866     H        0.80077    0.92383    0.08093    1.000
    C968     C        0.77997    0.90473    0.04987    1.000
    H867     H        0.74957    0.90413    0.05123    1.000
    C969     C        0.89257    0.93963    0.08383    1.000
    O257     O        0.93327    0.94393    0.08045    1.000
    O258     O        0.87917    0.94683    0.10183    1.000
    Co35     Co       0.35743    0.17865    0.30378    1.000
    Co36     Co       0.29406    0.14696    0.26543    1.000
    Zn21     Zn       0.03370    0.06746    0.12274    1.000
    B35      B        0.42423    0.21137    0.34317    1.000
    O259     O        0.43523    0.17897    0.33142    1.000
    N103     N        0.40853    0.15827    0.31322    1.000
    C970     C        0.41763    0.12597    0.30571    1.000
    H868     H        0.44133    0.12107    0.31297    1.000
    C971     C        0.39443    0.09597    0.28697    1.000
    C972     C        0.36013    0.10087    0.27390    1.000
    C973     C        0.34213    0.07017    0.25527    1.000
    C974     C        0.35533    0.03417    0.25152    1.000
    H869     H        0.34303    0.01407    0.23917    1.000
    C975     C        0.38563    0.02717    0.26534    1.000
    C976     C        0.40453    0.05837    0.28266    1.000
    H870     H        0.42563    0.05407    0.29217    1.000
    C977     C        0.31003    0.07387    0.24007    1.000
    H871     H        0.30393    0.05517    0.22727    1.000
    N104     N        0.28913    0.09897    0.24147    1.000
    O260     O        0.25883    0.09147    0.22421    1.000
    B36      B        0.22873    0.11487    0.22546    1.000
    O261     O        0.37203    0.18477    0.35128    1.000
    N105     N        0.33673    0.16717    0.33586    1.000
    C978     C        0.29413    0.14557    0.34427    1.000
    H872     H        0.29333    0.14357    0.35947    1.000
    C979     C        0.24713    0.12387    0.33373    1.000
    C980     C        0.24333    0.12217    0.31082    1.000
    C981     C        0.19553    0.10197    0.30159    1.000
    C982     C        0.15503    0.08917    0.31533    1.000
    H873     H        0.12353    0.07707    0.30907    1.000
    C983     C        0.15883    0.09327    0.33748    1.000
    C984     C        0.20563    0.11057    0.34646    1.000
    H874     H        0.20923    0.11337    0.36157    1.000
    C985     C        0.18643    0.09587    0.27870    1.000
    H875     H        0.15313    0.08097    0.27437    1.000
    N106     N        0.21773    0.10817    0.26377    1.000
    O262     O        0.19483    0.09747    0.24397    1.000
    O263     O        0.43483    0.25647    0.33125    1.000
    N107     N        0.40813    0.25037    0.31362    1.000
    C986     C        0.41633    0.29157    0.30608    1.000
    H876     H        0.43903    0.32007    0.31377    1.000
    C987     C        0.39463    0.29907    0.28713    1.000
    C988     C        0.36083    0.25957    0.27366    1.000
    C989     C        0.34113    0.27217    0.25574    1.000
    C990     C        0.35423    0.32067    0.25239    1.000
    H877     H        0.34003    0.32787    0.24047    1.000
    C991     C        0.38693    0.35967    0.26521    1.000
    C992     C        0.40633    0.34727    0.28244    1.000
    H878     H        0.42883    0.37287    0.29157    1.000
    C993     C        0.30703    0.23637    0.24057    1.000
    H879     H        0.29783    0.24867    0.22857    1.000
    N108     N        0.28823    0.19047    0.24178    1.000
    O264     O        0.25763    0.16847    0.22444    1.000
    C994     C        0.19573    0.09747    0.20437    1.000
    C995     C        0.18163    0.05327    0.19451    1.000
    H880     H        0.19313    0.03277    0.20017    1.000
    C996     C        0.15123    0.03747    0.17671    1.000
    H881     H        0.14153    0.00637    0.17057    1.000
    C997     C        0.13503    0.06727    0.16797    1.000
    C998     C        0.14993    0.11237    0.17703    1.000
    H882     H        0.13953    0.13337    0.17097    1.000
    C999     C        0.17983    0.12727    0.19498    1.000
    H883     H        0.18973    0.15857    0.20107    1.000
    O265     O        0.34813    0.13297    0.27756    1.000
    C1000    C        0.39703    0.98577    0.26127    1.000
    C1001    C        0.41693    0.97157    0.28027    1.000
    H884     H        0.44483    0.00097    0.28637    1.000
    H885     H        0.42763    0.94867    0.27557    1.000
    H886     H        0.39123    0.95587    0.29117    1.000
    C1002    C        0.35443    0.94027    0.25227    1.000
    H887     H        0.34113    0.94887    0.23987    1.000
    H888     H        0.32903    0.92467    0.26327    1.000
    H889     H        0.36543    0.91747    0.24777    1.000
    C1003    C        0.43553    0.00727    0.24297    1.000
    H890     H        0.46443    0.03737    0.24797    1.000
    H891     H        0.42113    0.01467    0.23057    1.000
    H892     H        0.44503    0.98317    0.23877    1.000
    O266     O        0.28183    0.14117    0.29856    1.000
    C1004    C        0.11433    0.08057    0.35197    1.000
    C1005    C        0.12473    0.12167    0.36707    1.000
    H893     H        0.15473    0.13047    0.37517    1.000
    H894     H        0.09723    0.11127    0.37697    1.000
    H895     H        0.12933    0.15027    0.35887    1.000
    C1006    C        0.10773    0.03537    0.36517    1.000
    H896     H        0.10093    0.00837    0.35537    1.000
    H897     H        0.08043    0.02507    0.37517    1.000
    H898     H        0.13793    0.04457    0.37317    1.000
    C1007    C        0.06773    0.06567    0.33887    1.000
    H899     H        0.06173    0.03877    0.32917    1.000
    H900     H        0.07173    0.09377    0.33047    1.000
    H901     H        0.03973    0.05487    0.34867    1.000
    O267     O        0.34863    0.21497    0.27773    1.000
    C1008    C        0.40023    0.41237    0.25987    1.000
    C1009    C        0.42123    0.44837    0.27767    1.000
    H902     H        0.44693    0.44487    0.28487    1.000
    H903     H        0.39533    0.44247    0.28797    1.000
    H904     H        0.43533    0.48167    0.27187    1.000
    C1010    C        0.44063    0.43007    0.24247    1.000
    H905     H        0.42853    0.40737    0.23027    1.000
    H906     H        0.46993    0.43107    0.24837    1.000
    H907     H        0.44893    0.46297    0.23757    1.000
    C1011    C        0.36043    0.41787    0.24877    1.000
    H908     H        0.34653    0.39407    0.23707    1.000
    H909     H        0.37453    0.45117    0.24297    1.000
    H910     H        0.33463    0.41197    0.25907    1.000
    C1012    C        0.10043    0.04977    0.14910    1.000
    O268     O        0.08842    0.00856    0.14198    1.000
    O269     O        0.08842    0.07956    0.14207    1.000
    C1013    C        0.45773    0.23347    0.36403    1.000
    C1014    C        0.50273    0.27747    0.36322    1.000
    H911     H        0.51143    0.29627    0.35037    1.000
    C1015    C        0.53483    0.29467    0.38022    1.000
    H912     H        0.56503    0.32457    0.37887    1.000
    C1016    C        0.52323    0.26847    0.39935    1.000
    C1017    C        0.47793    0.22607    0.40104    1.000
    H913     H        0.46853    0.20817    0.41417    1.000
    C1018    C        0.44643    0.20987    0.38380    1.000
    H914     H        0.41543    0.18107    0.38547    1.000
    C1019    C        0.55863    0.28737    0.41767    1.000
    O270     O        0.59933    0.32357    0.41444    1.000
    O271     O        0.54513    0.26677    0.43547    1.000
    C1020    C        0.45923    0.22607    0.36363    1.000
    C1021    C        0.50433    0.22727    0.36260    1.000
    H915     H        0.51333    0.21797    0.34967    1.000
    C1022    C        0.53613    0.24157    0.37977    1.000
    H916     H        0.56663    0.24247    0.37847    1.000
    C1023    C        0.52303    0.25457    0.39909    1.000
    C1024    C        0.47763    0.25087    0.40085    1.000
    H917     H        0.46743    0.25717    0.41427    1.000
    C1025    C        0.44663    0.23807    0.38321    1.000
    H918     H        0.41623    0.23747    0.38457    1.000
    C1026    C        0.55923    0.27297    0.41717    1.000
    O272     O        0.59993    0.27727    0.41379    1.000
    O273     O        0.54583    0.28017    0.43517    1.000
    Zn22     Zn       0.33333    0.66667    0.74856    1.000
    Zn23     Zn       0.00000    0.00000    0.08189    1.000
    Zn24     Zn       0.66667    0.33333    0.41523    1.000
    O274     O        0.66667    0.33333    0.44718    1.000
    O275     O        0.33333    0.66667    0.78051    1.000
    O276     O        0.00000    0.00000    0.11385    1.000
