# CIF file generated by openbabel 3.1.0, see https://openbabel.org
data_I
_chemical_name_common 'image0'
_cell_length_a 35.2839
_cell_length_b 15.1592
_cell_length_c 30.6904
_cell_angle_alpha 90
_cell_angle_beta 102.222
_cell_angle_gamma 90
_space_group_name_H-M_alt 'P 1'
_space_group_name_Hall 'P 1'
loop_
    _symmetry_equiv_pos_as_xyz
    x,y,z
loop_
    _atom_site_label
    _atom_site_type_symbol
    _atom_site_fract_x
    _atom_site_fract_y
    _atom_site_fract_z
    _atom_site_occupancy
    I1       I        0.02400    0.35350    0.13801    1.000
    I2       I        0.74293    0.72234    0.31375    1.000
    I3       I        0.63609    0.67692    0.20766    1.000
    I4       I        0.11335    0.26232    0.06256    1.000
    I5       I        0.39677    0.27072    0.40304    1.000
    I6       I        0.35444    0.41561    0.51082    1.000
    Zn1      Zn       0.07791    0.38028    0.09608    1.000
    Zn2      Zn       0.67982    0.64056    0.28314    1.000
    Zn3      Zn       0.37568    0.41014    0.43697    1.000
    N1       N        0.56292    0.02210    0.54892    1.000
    N2       N        0.19017    0.00640    0.28250    1.000
    N3       N        0.42052    0.49860    0.44000    1.000
    N4       N        0.18222    0.68320    0.24840    1.000
    N5       N        0.33322    0.47170    0.39080    1.000
    N6       N        0.11788    0.45250    0.14130    1.000
    N7       N        0.52028    0.73700    0.47046    1.000
    N8       N        0.21936    0.55550    0.27180    1.000
    N9       N        0.64498    0.65790    0.32870    1.000
    N10      N        0.57349    0.78280    0.43976    1.000
    N11      N        0.53745    0.65510    0.41146    1.000
    C1       C        0.19011    0.59800    0.24570    1.000
    N12      N        0.23802    0.69300    0.30710    1.000
    C2       C        0.16516    0.54700    0.20950    1.000
    C3       C        0.24208    0.60580    0.30250    1.000
    C4       C        0.27399    0.56010    0.33350    1.000
    C5       C        0.54889    0.79290    0.46680    1.000
    C6       C        0.22160    0.96960    0.30600    1.000
    H1       H        0.24000    0.00570    0.32360    1.000
    C7       C        0.20784    0.72760    0.27900    1.000
    C8       C        0.56663    0.71130    0.41320    1.000
    C9       C        0.22860    0.88050    0.30580    1.000
    H2       H        0.25140    0.85760    0.32280    1.000
    C10      C        0.48231    0.61160    0.44080    1.000
    C11      C        0.55318    0.87270    0.49510    1.000
    C12      C        0.16400    0.95330    0.25760    1.000
    H3       H        0.14150    0.97830    0.24090    1.000
    C13      C        0.51525    0.67150    0.44110    1.000
    C14      C        0.53375    0.96540    0.54940    1.000
    H4       H        0.51700    0.97660    0.56830    1.000
    C15      C        0.17200    0.45890    0.20240    1.000
    H5       H        0.19270    0.42980    0.22050    1.000
    C16      C        0.59367    0.69400    0.38350    1.000
    C17      C        0.30960    0.42930    0.35750    1.000
    H6       H        0.31350    0.36930    0.35400    1.000
    C18      C        0.52770    0.89110    0.52280    1.000
    H7       H        0.50690    0.85380    0.52350    1.000
    C19      C        0.29860    0.60470    0.36700    1.000
    H8       H        0.29610    0.66520    0.37070    1.000
    C20      C        0.14800    0.41490    0.16840    1.000
    H9       H        0.15310    0.35580    0.16400    1.000
    C21      C        0.20140    0.82500    0.28050    1.000
    C22      C        0.65510    0.71140    0.36380    1.000
    H10      H        0.67970    0.73630    0.36960    1.000
    C23      C        0.43840    0.53800    0.47750    1.000
    H11      H        0.42990    0.52630    0.50360    1.000
    C24      C        0.63030    0.73130    0.39180    1.000
    H12      H        0.63810    0.76910    0.41590    1.000
    C25      C        0.11180    0.53730    0.14810    1.000
    H13      H        0.09100    0.56500    0.12950    1.000
    C26      C        0.58630    0.00590    0.52120    1.000
    H14      H        0.60600    0.04580    0.51990    1.000
    C27      C        0.58290    0.63780    0.34660    1.000
    H15      H        0.55850    0.61150    0.34020    1.000
    C28      C        0.32750    0.55710    0.39510    1.000
    H16      H        0.34380    0.58700    0.41820    1.000
    C29      C        0.60930    0.62250    0.32030    1.000
    H17      H        0.60200    0.58600    0.29550    1.000
    C30      C        0.58250    0.93180    0.49400    1.000
    H18      H        0.59970    0.92230    0.47530    1.000
    C31      C        0.16870    0.86310    0.25540    1.000
    H19      H        0.14990    0.82870    0.23720    1.000
    C32      C        0.27990    0.47020    0.32830    1.000
    H20      H        0.26410    0.43850    0.30560    1.000
    C33      C        0.13460    0.58630    0.18100    1.000
    H21      H        0.12940    0.64590    0.18400    1.000
    C34      C        0.46910    0.59520    0.47930    1.000
    H22      H        0.48060    0.62250    0.50590    1.000
    C35      C        0.43270    0.51720    0.40200    1.000
    H23      H        0.41970    0.49190    0.37540    1.000
    C36      C        0.46340    0.57200    0.40140    1.000
    H24      H        0.47140    0.58250    0.37490    1.000
    I7       I        0.52400    0.85350    0.13801    1.000
    I8       I        0.24293    0.22234    0.31375    1.000
    I9       I        0.13609    0.17692    0.20766    1.000
    I10      I        0.61335    0.76232    0.06256    1.000
    I11      I        0.89677    0.77072    0.40304    1.000
    I12      I        0.85444    0.91561    0.51082    1.000
    Zn4      Zn       0.57791    0.88028    0.09608    1.000
    Zn5      Zn       0.17982    0.14056    0.28314    1.000
    Zn6      Zn       0.87568    0.91014    0.43697    1.000
    N13      N        0.06292    0.52210    0.54892    1.000
    N14      N        0.69017    0.50640    0.28250    1.000
    N15      N        0.92052    0.99860    0.44000    1.000
    N16      N        0.68222    0.18320    0.24840    1.000
    N17      N        0.83322    0.97170    0.39080    1.000
    N18      N        0.61788    0.95250    0.14130    1.000
    N19      N        0.02028    0.23700    0.47046    1.000
    N20      N        0.71936    0.05550    0.27180    1.000
    N21      N        0.14498    0.15790    0.32870    1.000
    N22      N        0.07349    0.28280    0.43976    1.000
    N23      N        0.03745    0.15510    0.41146    1.000
    C37      C        0.69011    0.09800    0.24570    1.000
    N24      N        0.73802    0.19300    0.30710    1.000
    C38      C        0.66516    0.04700    0.20950    1.000
    C39      C        0.74208    0.10580    0.30250    1.000
    C40      C        0.77399    0.06010    0.33350    1.000
    C41      C        0.04889    0.29290    0.46680    1.000
    C42      C        0.72160    0.46960    0.30600    1.000
    H25      H        0.74000    0.50570    0.32360    1.000
    C43      C        0.70784    0.22760    0.27900    1.000
    C44      C        0.06663    0.21130    0.41320    1.000
    C45      C        0.72860    0.38050    0.30580    1.000
    H26      H        0.75140    0.35760    0.32280    1.000
    C46      C        0.98231    0.11160    0.44080    1.000
    C47      C        0.05318    0.37270    0.49510    1.000
    C48      C        0.66400    0.45330    0.25760    1.000
    H27      H        0.64150    0.47830    0.24090    1.000
    C49      C        0.01525    0.17150    0.44110    1.000
    C50      C        0.03375    0.46540    0.54940    1.000
    H28      H        0.01700    0.47660    0.56830    1.000
    C51      C        0.67200    0.95890    0.20240    1.000
    H29      H        0.69270    0.92980    0.22050    1.000
    C52      C        0.09367    0.19400    0.38350    1.000
    C53      C        0.80960    0.92930    0.35750    1.000
    H30      H        0.81350    0.86930    0.35400    1.000
    C54      C        0.02770    0.39110    0.52280    1.000
    H31      H        0.00690    0.35380    0.52350    1.000
    C55      C        0.79860    0.10470    0.36700    1.000
    H32      H        0.79610    0.16520    0.37070    1.000
    C56      C        0.64800    0.91490    0.16840    1.000
    H33      H        0.65310    0.85580    0.16400    1.000
    C57      C        0.70140    0.32500    0.28050    1.000
    C58      C        0.15510    0.21140    0.36380    1.000
    H34      H        0.17970    0.23630    0.36960    1.000
    C59      C        0.93840    0.03800    0.47750    1.000
    H35      H        0.92990    0.02630    0.50360    1.000
    C60      C        0.13030    0.23130    0.39180    1.000
    H36      H        0.13810    0.26910    0.41590    1.000
    C61      C        0.61180    0.03730    0.14810    1.000
    H37      H        0.59100    0.06500    0.12950    1.000
    C62      C        0.08630    0.50590    0.52120    1.000
    H38      H        0.10600    0.54580    0.51990    1.000
    C63      C        0.08290    0.13780    0.34660    1.000
    H39      H        0.05850    0.11150    0.34020    1.000
    C64      C        0.82750    0.05710    0.39510    1.000
    H40      H        0.84380    0.08700    0.41820    1.000
    C65      C        0.10930    0.12250    0.32030    1.000
    H41      H        0.10200    0.08600    0.29550    1.000
    C66      C        0.08250    0.43180    0.49400    1.000
    H42      H        0.09970    0.42230    0.47530    1.000
    C67      C        0.66870    0.36310    0.25540    1.000
    H43      H        0.64990    0.32870    0.23720    1.000
    C68      C        0.77990    0.97020    0.32830    1.000
    H44      H        0.76410    0.93850    0.30560    1.000
    C69      C        0.63460    0.08630    0.18100    1.000
    H45      H        0.62940    0.14590    0.18400    1.000
    C70      C        0.96910    0.09520    0.47930    1.000
    H46      H        0.98060    0.12250    0.50590    1.000
    C71      C        0.93270    0.01720    0.40200    1.000
    H47      H        0.91970    0.99190    0.37540    1.000
    C72      C        0.96340    0.07200    0.40140    1.000
    H48      H        0.97140    0.08250    0.37490    1.000
    I13      I        0.02400    0.64650    0.63801    1.000
    I14      I        0.74293    0.27766    0.81375    1.000
    I15      I        0.63609    0.32308    0.70766    1.000
    I16      I        0.11335    0.73768    0.56256    1.000
    I17      I        0.39677    0.72928    0.90304    1.000
    I18      I        0.35444    0.58439    0.01082    1.000
    Zn7      Zn       0.07791    0.61972    0.59608    1.000
    Zn8      Zn       0.67982    0.35944    0.78314    1.000
    Zn9      Zn       0.37568    0.58986    0.93697    1.000
    N25      N        0.56292    0.97790    0.04892    1.000
    N26      N        0.19017    0.99360    0.78250    1.000
    N27      N        0.42052    0.50140    0.94000    1.000
    N28      N        0.18222    0.31680    0.74840    1.000
    N29      N        0.33322    0.52830    0.89080    1.000
    N30      N        0.11788    0.54750    0.64130    1.000
    N31      N        0.52028    0.26300    0.97046    1.000
    N32      N        0.21936    0.44450    0.77180    1.000
    N33      N        0.64498    0.34210    0.82870    1.000
    N34      N        0.57349    0.21720    0.93976    1.000
    N35      N        0.53745    0.34490    0.91146    1.000
    C73      C        0.19011    0.40200    0.74570    1.000
    N36      N        0.23802    0.30700    0.80710    1.000
    C74      C        0.16516    0.45300    0.70950    1.000
    C75      C        0.24208    0.39420    0.80250    1.000
    C76      C        0.27399    0.43990    0.83350    1.000
    C77      C        0.54889    0.20710    0.96680    1.000
    C78      C        0.22160    0.03040    0.80600    1.000
    H49      H        0.24000    0.99430    0.82360    1.000
    C79      C        0.20784    0.27240    0.77900    1.000
    C80      C        0.56663    0.28870    0.91320    1.000
    C81      C        0.22860    0.11950    0.80580    1.000
    H50      H        0.25140    0.14240    0.82280    1.000
    C82      C        0.48231    0.38840    0.94080    1.000
    C83      C        0.55318    0.12730    0.99510    1.000
    C84      C        0.16400    0.04670    0.75760    1.000
    H51      H        0.14150    0.02170    0.74090    1.000
    C85      C        0.51525    0.32850    0.94110    1.000
    C86      C        0.53375    0.03460    0.04940    1.000
    H52      H        0.51700    0.02340    0.06830    1.000
    C87      C        0.17200    0.54110    0.70240    1.000
    H53      H        0.19270    0.57020    0.72050    1.000
    C88      C        0.59367    0.30600    0.88350    1.000
    C89      C        0.30960    0.57070    0.85750    1.000
    H54      H        0.31350    0.63070    0.85400    1.000
    C90      C        0.52770    0.10890    0.02280    1.000
    H55      H        0.50690    0.14620    0.02350    1.000
    C91      C        0.29860    0.39530    0.86700    1.000
    H56      H        0.29610    0.33480    0.87070    1.000
    C92      C        0.14800    0.58510    0.66840    1.000
    H57      H        0.15310    0.64420    0.66400    1.000
    C93      C        0.20140    0.17500    0.78050    1.000
    C94      C        0.65510    0.28860    0.86380    1.000
    H58      H        0.67970    0.26370    0.86960    1.000
    C95      C        0.43840    0.46200    0.97750    1.000
    H59      H        0.42990    0.47370    0.00360    1.000
    C96      C        0.63030    0.26870    0.89180    1.000
    H60      H        0.63810    0.23090    0.91590    1.000
    C97      C        0.11180    0.46270    0.64810    1.000
    H61      H        0.09100    0.43500    0.62950    1.000
    C98      C        0.58630    0.99410    0.02120    1.000
    H62      H        0.60600    0.95420    0.01990    1.000
    C99      C        0.58290    0.36220    0.84660    1.000
    H63      H        0.55850    0.38850    0.84020    1.000
    C100     C        0.32750    0.44290    0.89510    1.000
    H64      H        0.34380    0.41300    0.91820    1.000
    C101     C        0.60930    0.37750    0.82030    1.000
    H65      H        0.60200    0.41400    0.79550    1.000
    C102     C        0.58250    0.06820    0.99400    1.000
    H66      H        0.59970    0.07770    0.97530    1.000
    C103     C        0.16870    0.13690    0.75540    1.000
    H67      H        0.14990    0.17130    0.73720    1.000
    C104     C        0.27990    0.52980    0.82830    1.000
    H68      H        0.26410    0.56150    0.80560    1.000
    C105     C        0.13460    0.41370    0.68100    1.000
    H69      H        0.12940    0.35410    0.68400    1.000
    C106     C        0.46910    0.40480    0.97930    1.000
    H70      H        0.48060    0.37750    0.00590    1.000
    C107     C        0.43270    0.48280    0.90200    1.000
    H71      H        0.41970    0.50810    0.87540    1.000
    C108     C        0.46340    0.42800    0.90140    1.000
    H72      H        0.47140    0.41750    0.87490    1.000
    I19      I        0.52400    0.14650    0.63801    1.000
    I20      I        0.24293    0.77766    0.81375    1.000
    I21      I        0.13609    0.82308    0.70766    1.000
    I22      I        0.61335    0.23768    0.56256    1.000
    I23      I        0.89677    0.22928    0.90304    1.000
    I24      I        0.85444    0.08439    0.01082    1.000
    Zn10     Zn       0.57791    0.11972    0.59608    1.000
    Zn11     Zn       0.17982    0.85944    0.78314    1.000
    Zn12     Zn       0.87568    0.08986    0.93697    1.000
    N37      N        0.06292    0.47790    0.04892    1.000
    N38      N        0.69017    0.49360    0.78250    1.000
    N39      N        0.92052    0.00140    0.94000    1.000
    N40      N        0.68222    0.81680    0.74840    1.000
    N41      N        0.83322    0.02830    0.89080    1.000
    N42      N        0.61788    0.04750    0.64130    1.000
    N43      N        0.02028    0.76300    0.97046    1.000
    N44      N        0.71936    0.94450    0.77180    1.000
    N45      N        0.14498    0.84210    0.82870    1.000
    N46      N        0.07349    0.71720    0.93976    1.000
    N47      N        0.03745    0.84490    0.91146    1.000
    C109     C        0.69011    0.90200    0.74570    1.000
    N48      N        0.73802    0.80700    0.80710    1.000
    C110     C        0.66516    0.95300    0.70950    1.000
    C111     C        0.74208    0.89420    0.80250    1.000
    C112     C        0.77399    0.93990    0.83350    1.000
    C113     C        0.04889    0.70710    0.96680    1.000
    C114     C        0.72160    0.53040    0.80600    1.000
    H73      H        0.74000    0.49430    0.82360    1.000
    C115     C        0.70784    0.77240    0.77900    1.000
    C116     C        0.06663    0.78870    0.91320    1.000
    C117     C        0.72860    0.61950    0.80580    1.000
    H74      H        0.75140    0.64240    0.82280    1.000
    C118     C        0.98231    0.88840    0.94080    1.000
    C119     C        0.05318    0.62730    0.99510    1.000
    C120     C        0.66400    0.54670    0.75760    1.000
    H75      H        0.64150    0.52170    0.74090    1.000
    C121     C        0.01525    0.82850    0.94110    1.000
    C122     C        0.03375    0.53460    0.04940    1.000
    H76      H        0.01700    0.52340    0.06830    1.000
    C123     C        0.67200    0.04110    0.70240    1.000
    H77      H        0.69270    0.07020    0.72050    1.000
    C124     C        0.09367    0.80600    0.88350    1.000
    C125     C        0.80960    0.07070    0.85750    1.000
    H78      H        0.81350    0.13070    0.85400    1.000
    C126     C        0.02770    0.60890    0.02280    1.000
    H79      H        0.00690    0.64620    0.02350    1.000
    C127     C        0.79860    0.89530    0.86700    1.000
    H80      H        0.79610    0.83480    0.87070    1.000
    C128     C        0.64800    0.08510    0.66840    1.000
    H81      H        0.65310    0.14420    0.66400    1.000
    C129     C        0.70140    0.67500    0.78050    1.000
    C130     C        0.15510    0.78860    0.86380    1.000
    H82      H        0.17970    0.76370    0.86960    1.000
    C131     C        0.93840    0.96200    0.97750    1.000
    H83      H        0.92990    0.97370    0.00360    1.000
    C132     C        0.13030    0.76870    0.89180    1.000
    H84      H        0.13810    0.73090    0.91590    1.000
    C133     C        0.61180    0.96270    0.64810    1.000
    H85      H        0.59100    0.93500    0.62950    1.000
    C134     C        0.08630    0.49410    0.02120    1.000
    H86      H        0.10600    0.45420    0.01990    1.000
    C135     C        0.08290    0.86220    0.84660    1.000
    H87      H        0.05850    0.88850    0.84020    1.000
    C136     C        0.82750    0.94290    0.89510    1.000
    H88      H        0.84380    0.91300    0.91820    1.000
    C137     C        0.10930    0.87750    0.82030    1.000
    H89      H        0.10200    0.91400    0.79550    1.000
    C138     C        0.08250    0.56820    0.99400    1.000
    H90      H        0.09970    0.57770    0.97530    1.000
    C139     C        0.66870    0.63690    0.75540    1.000
    H91      H        0.64990    0.67130    0.73720    1.000
    C140     C        0.77990    0.02980    0.82830    1.000
    H92      H        0.76410    0.06150    0.80560    1.000
    C141     C        0.63460    0.91370    0.68100    1.000
    H93      H        0.62940    0.85410    0.68400    1.000
    C142     C        0.96910    0.90480    0.97930    1.000
    H94      H        0.98060    0.87750    0.00590    1.000
    C143     C        0.93270    0.98280    0.90200    1.000
    H95      H        0.91970    0.00810    0.87540    1.000
    C144     C        0.96340    0.92800    0.90140    1.000
    H96      H        0.97140    0.91750    0.87490    1.000
    I25      I        0.97600    0.35350    0.36199    1.000
    I26      I        0.25707    0.72234    0.18625    1.000
    I27      I        0.36391    0.67692    0.29234    1.000
    I28      I        0.88665    0.26232    0.43744    1.000
    I29      I        0.60323    0.27072    0.09696    1.000
    I30      I        0.64556    0.41561    0.98918    1.000
    Zn13     Zn       0.92209    0.38028    0.40392    1.000
    Zn14     Zn       0.32018    0.64056    0.21686    1.000
    Zn15     Zn       0.62432    0.41014    0.06303    1.000
    N49      N        0.43708    0.02210    0.95108    1.000
    N50      N        0.80983    0.00640    0.21750    1.000
    N51      N        0.57948    0.49860    0.06000    1.000
    N52      N        0.81778    0.68320    0.25160    1.000
    N53      N        0.66678    0.47170    0.10920    1.000
    N54      N        0.88212    0.45250    0.35870    1.000
    N55      N        0.47972    0.73700    0.02954    1.000
    N56      N        0.78064    0.55550    0.22820    1.000
    N57      N        0.35502    0.65790    0.17130    1.000
    N58      N        0.42651    0.78280    0.06024    1.000
    N59      N        0.46255    0.65510    0.08854    1.000
    C145     C        0.80989    0.59800    0.25430    1.000
    N60      N        0.76198    0.69300    0.19290    1.000
    C146     C        0.83484    0.54700    0.29050    1.000
    C147     C        0.75792    0.60580    0.19750    1.000
    C148     C        0.72601    0.56010    0.16650    1.000
    C149     C        0.45111    0.79290    0.03320    1.000
    C150     C        0.77840    0.96960    0.19400    1.000
    H97      H        0.76000    0.00570    0.17640    1.000
    C151     C        0.79216    0.72760    0.22100    1.000
    C152     C        0.43337    0.71130    0.08680    1.000
    C153     C        0.77140    0.88050    0.19420    1.000
    H98      H        0.74860    0.85760    0.17720    1.000
    C154     C        0.51769    0.61160    0.05920    1.000
    C155     C        0.44682    0.87270    0.00490    1.000
    C156     C        0.83600    0.95330    0.24240    1.000
    H99      H        0.85850    0.97830    0.25910    1.000
    C157     C        0.48475    0.67150    0.05890    1.000
    C158     C        0.46625    0.96540    0.95060    1.000
    H100     H        0.48300    0.97660    0.93170    1.000
    C159     C        0.82800    0.45890    0.29760    1.000
    H101     H        0.80730    0.42980    0.27950    1.000
    C160     C        0.40633    0.69400    0.11650    1.000
    C161     C        0.69040    0.42930    0.14250    1.000
    H102     H        0.68650    0.36930    0.14600    1.000
    C162     C        0.47230    0.89110    0.97720    1.000
    H103     H        0.49310    0.85380    0.97650    1.000
    C163     C        0.70140    0.60470    0.13300    1.000
    H104     H        0.70390    0.66520    0.12930    1.000
    C164     C        0.85200    0.41490    0.33160    1.000
    H105     H        0.84690    0.35580    0.33600    1.000
    C165     C        0.79860    0.82500    0.21950    1.000
    C166     C        0.34490    0.71140    0.13620    1.000
    H106     H        0.32030    0.73630    0.13040    1.000
    C167     C        0.56160    0.53800    0.02250    1.000
    H107     H        0.57010    0.52630    0.99640    1.000
    C168     C        0.36970    0.73130    0.10820    1.000
    H108     H        0.36190    0.76910    0.08410    1.000
    C169     C        0.88820    0.53730    0.35190    1.000
    H109     H        0.90900    0.56500    0.37050    1.000
    C170     C        0.41370    0.00590    0.97880    1.000
    H110     H        0.39400    0.04580    0.98010    1.000
    C171     C        0.41710    0.63780    0.15340    1.000
    H111     H        0.44150    0.61150    0.15980    1.000
    C172     C        0.67250    0.55710    0.10490    1.000
    H112     H        0.65620    0.58700    0.08180    1.000
    C173     C        0.39070    0.62250    0.17970    1.000
    H113     H        0.39800    0.58600    0.20450    1.000
    C174     C        0.41750    0.93180    0.00600    1.000
    H114     H        0.40030    0.92230    0.02470    1.000
    C175     C        0.83130    0.86310    0.24460    1.000
    H115     H        0.85010    0.82870    0.26280    1.000
    C176     C        0.72010    0.47020    0.17170    1.000
    H116     H        0.73590    0.43850    0.19440    1.000
    C177     C        0.86540    0.58630    0.31900    1.000
    H117     H        0.87060    0.64590    0.31600    1.000
    C178     C        0.53090    0.59520    0.02070    1.000
    H118     H        0.51940    0.62250    0.99410    1.000
    C179     C        0.56730    0.51720    0.09800    1.000
    H119     H        0.58030    0.49190    0.12460    1.000
    C180     C        0.53660    0.57200    0.09860    1.000
    H120     H        0.52860    0.58250    0.12510    1.000
    I31      I        0.47600    0.85350    0.36199    1.000
    I32      I        0.75707    0.22234    0.18625    1.000
    I33      I        0.86391    0.17692    0.29234    1.000
    I34      I        0.38665    0.76232    0.43744    1.000
    I35      I        0.10323    0.77072    0.09696    1.000
    I36      I        0.14556    0.91561    0.98918    1.000
    Zn16     Zn       0.42209    0.88028    0.40392    1.000
    Zn17     Zn       0.82018    0.14056    0.21686    1.000
    Zn18     Zn       0.12432    0.91014    0.06303    1.000
    N61      N        0.93708    0.52210    0.95108    1.000
    N62      N        0.30983    0.50640    0.21750    1.000
    N63      N        0.07948    0.99860    0.06000    1.000
    N64      N        0.31778    0.18320    0.25160    1.000
    N65      N        0.16678    0.97170    0.10920    1.000
    N66      N        0.38212    0.95250    0.35870    1.000
    N67      N        0.97972    0.23700    0.02954    1.000
    N68      N        0.28064    0.05550    0.22820    1.000
    N69      N        0.85502    0.15790    0.17130    1.000
    N70      N        0.92651    0.28280    0.06024    1.000
    N71      N        0.96255    0.15510    0.08854    1.000
    C181     C        0.30989    0.09800    0.25430    1.000
    N72      N        0.26198    0.19300    0.19290    1.000
    C182     C        0.33484    0.04700    0.29050    1.000
    C183     C        0.25792    0.10580    0.19750    1.000
    C184     C        0.22601    0.06010    0.16650    1.000
    C185     C        0.95111    0.29290    0.03320    1.000
    C186     C        0.27840    0.46960    0.19400    1.000
    H121     H        0.26000    0.50570    0.17640    1.000
    C187     C        0.29216    0.22760    0.22100    1.000
    C188     C        0.93337    0.21130    0.08680    1.000
    C189     C        0.27140    0.38050    0.19420    1.000
    H122     H        0.24860    0.35760    0.17720    1.000
    C190     C        0.01769    0.11160    0.05920    1.000
    C191     C        0.94682    0.37270    0.00490    1.000
    C192     C        0.33600    0.45330    0.24240    1.000
    H123     H        0.35850    0.47830    0.25910    1.000
    C193     C        0.98475    0.17150    0.05890    1.000
    C194     C        0.96625    0.46540    0.95060    1.000
    H124     H        0.98300    0.47660    0.93170    1.000
    C195     C        0.32800    0.95890    0.29760    1.000
    H125     H        0.30730    0.92980    0.27950    1.000
    C196     C        0.90633    0.19400    0.11650    1.000
    C197     C        0.19040    0.92930    0.14250    1.000
    H126     H        0.18650    0.86930    0.14600    1.000
    C198     C        0.97230    0.39110    0.97720    1.000
    H127     H        0.99310    0.35380    0.97650    1.000
    C199     C        0.20140    0.10470    0.13300    1.000
    H128     H        0.20390    0.16520    0.12930    1.000
    C200     C        0.35200    0.91490    0.33160    1.000
    H129     H        0.34690    0.85580    0.33600    1.000
    C201     C        0.29860    0.32500    0.21950    1.000
    C202     C        0.84490    0.21140    0.13620    1.000
    H130     H        0.82030    0.23630    0.13040    1.000
    C203     C        0.06160    0.03800    0.02250    1.000
    H131     H        0.07010    0.02630    0.99640    1.000
    C204     C        0.86970    0.23130    0.10820    1.000
    H132     H        0.86190    0.26910    0.08410    1.000
    C205     C        0.38820    0.03730    0.35190    1.000
    H133     H        0.40900    0.06500    0.37050    1.000
    C206     C        0.91370    0.50590    0.97880    1.000
    H134     H        0.89400    0.54580    0.98010    1.000
    C207     C        0.91710    0.13780    0.15340    1.000
    H135     H        0.94150    0.11150    0.15980    1.000
    C208     C        0.17250    0.05710    0.10490    1.000
    H136     H        0.15620    0.08700    0.08180    1.000
    C209     C        0.89070    0.12250    0.17970    1.000
    H137     H        0.89800    0.08600    0.20450    1.000
    C210     C        0.91750    0.43180    0.00600    1.000
    H138     H        0.90030    0.42230    0.02470    1.000
    C211     C        0.33130    0.36310    0.24460    1.000
    H139     H        0.35010    0.32870    0.26280    1.000
    C212     C        0.22010    0.97020    0.17170    1.000
    H140     H        0.23590    0.93850    0.19440    1.000
    C213     C        0.36540    0.08630    0.31900    1.000
    H141     H        0.37060    0.14590    0.31600    1.000
    C214     C        0.03090    0.09520    0.02070    1.000
    H142     H        0.01940    0.12250    0.99410    1.000
    C215     C        0.06730    0.01720    0.09800    1.000
    H143     H        0.08030    0.99190    0.12460    1.000
    C216     C        0.03660    0.07200    0.09860    1.000
    H144     H        0.02860    0.08250    0.12510    1.000
    I37      I        0.97600    0.64650    0.86199    1.000
    I38      I        0.25707    0.27766    0.68625    1.000
    I39      I        0.36391    0.32308    0.79234    1.000
    I40      I        0.88665    0.73768    0.93744    1.000
    I41      I        0.60323    0.72928    0.59696    1.000
    I42      I        0.64556    0.58439    0.48918    1.000
    Zn19     Zn       0.92209    0.61972    0.90392    1.000
    Zn20     Zn       0.32018    0.35944    0.71686    1.000
    Zn21     Zn       0.62432    0.58986    0.56303    1.000
    N73      N        0.43708    0.97790    0.45108    1.000
    N74      N        0.80983    0.99360    0.71750    1.000
    N75      N        0.57948    0.50140    0.56000    1.000
    N76      N        0.81778    0.31680    0.75160    1.000
    N77      N        0.66678    0.52830    0.60920    1.000
    N78      N        0.88212    0.54750    0.85870    1.000
    N79      N        0.47972    0.26300    0.52954    1.000
    N80      N        0.78064    0.44450    0.72820    1.000
    N81      N        0.35502    0.34210    0.67130    1.000
    N82      N        0.42651    0.21720    0.56024    1.000
    N83      N        0.46255    0.34490    0.58854    1.000
    C217     C        0.80989    0.40200    0.75430    1.000
    N84      N        0.76198    0.30700    0.69290    1.000
    C218     C        0.83484    0.45300    0.79050    1.000
    C219     C        0.75792    0.39420    0.69750    1.000
    C220     C        0.72601    0.43990    0.66650    1.000
    C221     C        0.45111    0.20710    0.53320    1.000
    C222     C        0.77840    0.03040    0.69400    1.000
    H145     H        0.76000    0.99430    0.67640    1.000
    C223     C        0.79216    0.27240    0.72100    1.000
    C224     C        0.43337    0.28870    0.58680    1.000
    C225     C        0.77140    0.11950    0.69420    1.000
    H146     H        0.74860    0.14240    0.67720    1.000
    C226     C        0.51769    0.38840    0.55920    1.000
    C227     C        0.44682    0.12730    0.50490    1.000
    C228     C        0.83600    0.04670    0.74240    1.000
    H147     H        0.85850    0.02170    0.75910    1.000
    C229     C        0.48475    0.32850    0.55890    1.000
    C230     C        0.46625    0.03460    0.45060    1.000
    H148     H        0.48300    0.02340    0.43170    1.000
    C231     C        0.82800    0.54110    0.79760    1.000
    H149     H        0.80730    0.57020    0.77950    1.000
    C232     C        0.40633    0.30600    0.61650    1.000
    C233     C        0.69040    0.57070    0.64250    1.000
    H150     H        0.68650    0.63070    0.64600    1.000
    C234     C        0.47230    0.10890    0.47720    1.000
    H151     H        0.49310    0.14620    0.47650    1.000
    C235     C        0.70140    0.39530    0.63300    1.000
    H152     H        0.70390    0.33480    0.62930    1.000
    C236     C        0.85200    0.58510    0.83160    1.000
    H153     H        0.84690    0.64420    0.83600    1.000
    C237     C        0.79860    0.17500    0.71950    1.000
    C238     C        0.34490    0.28860    0.63620    1.000
    H154     H        0.32030    0.26370    0.63040    1.000
    C239     C        0.56160    0.46200    0.52250    1.000
    H155     H        0.57010    0.47370    0.49640    1.000
    C240     C        0.36970    0.26870    0.60820    1.000
    H156     H        0.36190    0.23090    0.58410    1.000
    C241     C        0.88820    0.46270    0.85190    1.000
    H157     H        0.90900    0.43500    0.87050    1.000
    C242     C        0.41370    0.99410    0.47880    1.000
    H158     H        0.39400    0.95420    0.48010    1.000
    C243     C        0.41710    0.36220    0.65340    1.000
    H159     H        0.44150    0.38850    0.65980    1.000
    C244     C        0.67250    0.44290    0.60490    1.000
    H160     H        0.65620    0.41300    0.58180    1.000
    C245     C        0.39070    0.37750    0.67970    1.000
    H161     H        0.39800    0.41400    0.70450    1.000
    C246     C        0.41750    0.06820    0.50600    1.000
    H162     H        0.40030    0.07770    0.52470    1.000
    C247     C        0.83130    0.13690    0.74460    1.000
    H163     H        0.85010    0.17130    0.76280    1.000
    C248     C        0.72010    0.52980    0.67170    1.000
    H164     H        0.73590    0.56150    0.69440    1.000
    C249     C        0.86540    0.41370    0.81900    1.000
    H165     H        0.87060    0.35410    0.81600    1.000
    C250     C        0.53090    0.40480    0.52070    1.000
    H166     H        0.51940    0.37750    0.49410    1.000
    C251     C        0.56730    0.48280    0.59800    1.000
    H167     H        0.58030    0.50810    0.62460    1.000
    C252     C        0.53660    0.42800    0.59860    1.000
    H168     H        0.52860    0.41750    0.62510    1.000
    I43      I        0.47600    0.14650    0.86199    1.000
    I44      I        0.75707    0.77766    0.68625    1.000
    I45      I        0.86391    0.82308    0.79234    1.000
    I46      I        0.38665    0.23768    0.93744    1.000
    I47      I        0.10323    0.22928    0.59696    1.000
    I48      I        0.14556    0.08439    0.48918    1.000
    Zn22     Zn       0.42209    0.11972    0.90392    1.000
    Zn23     Zn       0.82018    0.85944    0.71686    1.000
    Zn24     Zn       0.12432    0.08986    0.56303    1.000
    N85      N        0.93708    0.47790    0.45108    1.000
    N86      N        0.30983    0.49360    0.71750    1.000
    N87      N        0.07948    0.00140    0.56000    1.000
    N88      N        0.31778    0.81680    0.75160    1.000
    N89      N        0.16678    0.02830    0.60920    1.000
    N90      N        0.38212    0.04750    0.85870    1.000
    N91      N        0.97972    0.76300    0.52954    1.000
    N92      N        0.28064    0.94450    0.72820    1.000
    N93      N        0.85502    0.84210    0.67130    1.000
    N94      N        0.92651    0.71720    0.56024    1.000
    N95      N        0.96255    0.84490    0.58854    1.000
    C253     C        0.30989    0.90200    0.75430    1.000
    N96      N        0.26198    0.80700    0.69290    1.000
    C254     C        0.33484    0.95300    0.79050    1.000
    C255     C        0.25792    0.89420    0.69750    1.000
    C256     C        0.22601    0.93990    0.66650    1.000
    C257     C        0.95111    0.70710    0.53320    1.000
    C258     C        0.27840    0.53040    0.69400    1.000
    H169     H        0.26000    0.49430    0.67640    1.000
    C259     C        0.29216    0.77240    0.72100    1.000
    C260     C        0.93337    0.78870    0.58680    1.000
    C261     C        0.27140    0.61950    0.69420    1.000
    H170     H        0.24860    0.64240    0.67720    1.000
    C262     C        0.01769    0.88840    0.55920    1.000
    C263     C        0.94682    0.62730    0.50490    1.000
    C264     C        0.33600    0.54670    0.74240    1.000
    H171     H        0.35850    0.52170    0.75910    1.000
    C265     C        0.98475    0.82850    0.55890    1.000
    C266     C        0.96625    0.53460    0.45060    1.000
    H172     H        0.98300    0.52340    0.43170    1.000
    C267     C        0.32800    0.04110    0.79760    1.000
    H173     H        0.30730    0.07020    0.77950    1.000
    C268     C        0.90633    0.80600    0.61650    1.000
    C269     C        0.19040    0.07070    0.64250    1.000
    H174     H        0.18650    0.13070    0.64600    1.000
    C270     C        0.97230    0.60890    0.47720    1.000
    H175     H        0.99310    0.64620    0.47650    1.000
    C271     C        0.20140    0.89530    0.63300    1.000
    H176     H        0.20390    0.83480    0.62930    1.000
    C272     C        0.35200    0.08510    0.83160    1.000
    H177     H        0.34690    0.14420    0.83600    1.000
    C273     C        0.29860    0.67500    0.71950    1.000
    C274     C        0.84490    0.78860    0.63620    1.000
    H178     H        0.82030    0.76370    0.63040    1.000
    C275     C        0.06160    0.96200    0.52250    1.000
    H179     H        0.07010    0.97370    0.49640    1.000
    C276     C        0.86970    0.76870    0.60820    1.000
    H180     H        0.86190    0.73090    0.58410    1.000
    C277     C        0.38820    0.96270    0.85190    1.000
    H181     H        0.40900    0.93500    0.87050    1.000
    C278     C        0.91370    0.49410    0.47880    1.000
    H182     H        0.89400    0.45420    0.48010    1.000
    C279     C        0.91710    0.86220    0.65340    1.000
    H183     H        0.94150    0.88850    0.65980    1.000
    C280     C        0.17250    0.94290    0.60490    1.000
    H184     H        0.15620    0.91300    0.58180    1.000
    C281     C        0.89070    0.87750    0.67970    1.000
    H185     H        0.89800    0.91400    0.70450    1.000
    C282     C        0.91750    0.56820    0.50600    1.000
    H186     H        0.90030    0.57770    0.52470    1.000
    C283     C        0.33130    0.63690    0.74460    1.000
    H187     H        0.35010    0.67130    0.76280    1.000
    C284     C        0.22010    0.02980    0.67170    1.000
    H188     H        0.23590    0.06150    0.69440    1.000
    C285     C        0.36540    0.91370    0.81900    1.000
    H189     H        0.37060    0.85410    0.81600    1.000
    C286     C        0.03090    0.90480    0.52070    1.000
    H190     H        0.01940    0.87750    0.49410    1.000
    C287     C        0.06730    0.98280    0.59800    1.000
    H191     H        0.08030    0.00810    0.62460    1.000
    C288     C        0.03660    0.92800    0.59860    1.000
    H192     H        0.02860    0.91750    0.62510    1.000
