# CIF file generated by openbabel 3.1.0, see https://openbabel.org
data_I
_chemical_name_common 'image0'
_cell_length_a 21.858
_cell_length_b 21.858
_cell_length_c 25.131
_cell_angle_alpha 90
_cell_angle_beta 90
_cell_angle_gamma 90
_space_group_name_H-M_alt 'P 1'
_space_group_name_Hall 'P 1'
loop_
    _symmetry_equiv_pos_as_xyz
    x,y,z
loop_
    _atom_site_label
    _atom_site_type_symbol
    _atom_site_fract_x
    _atom_site_fract_y
    _atom_site_fract_z
    _atom_site_occupancy
    Cu1      Cu       0.02536    0.94152    0.47572    1.000
    Br1      Br       0.91961    0.95232    0.51232    1.000
    Se1      Se       0.99633    0.80312    0.47466    1.000
    Se2      Se       0.13698    0.94871    0.40152    1.000
    N1       N        0.06720    0.88560    0.52830    1.000
    C1       C        0.05310    0.82600    0.52970    1.000
    C2       C        0.07680    0.78610    0.56750    1.000
    H1       H        0.06610    0.74400    0.56710    1.000
    C3       C        0.11620    0.80910    0.60570    1.000
    H2       H        0.13340    0.78290    0.63190    1.000
    C4       C        0.13010    0.87120    0.60490    1.000
    H3       H        0.15700    0.88820    0.63070    1.000
    C5       C        0.10490    0.90700    0.56710    1.000
    H4       H        0.11400    0.94950    0.56760    1.000
    N2       N        0.01170    0.93570    0.39540    1.000
    C6       C        0.06110    0.93900    0.36460    1.000
    C7       C        0.05420    0.93540    0.31070    1.000
    H5       H        0.08890    0.93800    0.28810    1.000
    C8       C        0.99660    0.92810    0.28910    1.000
    H6       H        0.99190    0.92580    0.25160    1.000
    C9       C        0.94750    0.92410    0.32030    1.000
    H7       H        0.90780    0.91880    0.30570    1.000
    C10      C        0.95630    0.92820    0.37480    1.000
    H8       H        0.92190    0.92550    0.39780    1.000
    Cu2      Cu       0.52536    0.44152    0.97572    1.000
    Br2      Br       0.41961    0.45232    0.01232    1.000
    Se3      Se       0.49633    0.30312    0.97466    1.000
    Se4      Se       0.63698    0.44871    0.90152    1.000
    N3       N        0.56720    0.38560    0.02830    1.000
    C11      C        0.55310    0.32600    0.02970    1.000
    C12      C        0.57680    0.28610    0.06750    1.000
    H9       H        0.56610    0.24400    0.06710    1.000
    C13      C        0.61620    0.30910    0.10570    1.000
    H10      H        0.63340    0.28290    0.13190    1.000
    C14      C        0.63010    0.37120    0.10490    1.000
    H11      H        0.65700    0.38820    0.13070    1.000
    C15      C        0.60490    0.40700    0.06710    1.000
    H12      H        0.61400    0.44950    0.06760    1.000
    N4       N        0.51170    0.43570    0.89540    1.000
    C16      C        0.56110    0.43900    0.86460    1.000
    C17      C        0.55420    0.43540    0.81070    1.000
    H13      H        0.58890    0.43800    0.78810    1.000
    C18      C        0.49660    0.42810    0.78910    1.000
    H14      H        0.49190    0.42580    0.75160    1.000
    C19      C        0.44750    0.42410    0.82030    1.000
    H15      H        0.40780    0.41880    0.80570    1.000
    C20      C        0.45630    0.42820    0.87480    1.000
    H16      H        0.42190    0.42550    0.89780    1.000
    Cu3      Cu       0.47464    0.05848    0.97572    1.000
    Br3      Br       0.58039    0.04768    0.01232    1.000
    Se5      Se       0.50367    0.19688    0.97466    1.000
    Se6      Se       0.36302    0.05129    0.90152    1.000
    N5       N        0.43280    0.11440    0.02830    1.000
    C21      C        0.44690    0.17400    0.02970    1.000
    C22      C        0.42320    0.21390    0.06750    1.000
    H17      H        0.43390    0.25600    0.06710    1.000
    C23      C        0.38380    0.19090    0.10570    1.000
    H18      H        0.36660    0.21710    0.13190    1.000
    C24      C        0.36990    0.12880    0.10490    1.000
    H19      H        0.34300    0.11180    0.13070    1.000
    C25      C        0.39510    0.09300    0.06710    1.000
    H20      H        0.38600    0.05050    0.06760    1.000
    N6       N        0.48830    0.06430    0.89540    1.000
    C26      C        0.43890    0.06100    0.86460    1.000
    C27      C        0.44580    0.06460    0.81070    1.000
    H21      H        0.41110    0.06200    0.78810    1.000
    C28      C        0.50340    0.07190    0.78910    1.000
    H22      H        0.50810    0.07420    0.75160    1.000
    C29      C        0.55250    0.07590    0.82030    1.000
    H23      H        0.59220    0.08120    0.80570    1.000
    C30      C        0.54370    0.07180    0.87480    1.000
    H24      H        0.57810    0.07450    0.89780    1.000
    Cu4      Cu       0.97464    0.55848    0.47572    1.000
    Br4      Br       0.08039    0.54768    0.51232    1.000
    Se7      Se       0.00367    0.69688    0.47466    1.000
    Se8      Se       0.86302    0.55129    0.40152    1.000
    N7       N        0.93280    0.61440    0.52830    1.000
    C31      C        0.94690    0.67400    0.52970    1.000
    C32      C        0.92320    0.71390    0.56750    1.000
    H25      H        0.93390    0.75600    0.56710    1.000
    C33      C        0.88380    0.69090    0.60570    1.000
    H26      H        0.86660    0.71710    0.63190    1.000
    C34      C        0.86990    0.62880    0.60490    1.000
    H27      H        0.84300    0.61180    0.63070    1.000
    C35      C        0.89510    0.59300    0.56710    1.000
    H28      H        0.88600    0.55050    0.56760    1.000
    N8       N        0.98830    0.56430    0.39540    1.000
    C36      C        0.93890    0.56100    0.36460    1.000
    C37      C        0.94580    0.56460    0.31070    1.000
    H29      H        0.91110    0.56200    0.28810    1.000
    C38      C        0.00340    0.57190    0.28910    1.000
    H30      H        0.00810    0.57420    0.25160    1.000
    C39      C        0.05250    0.57590    0.32030    1.000
    H31      H        0.09220    0.58120    0.30570    1.000
    C40      C        0.04370    0.57180    0.37480    1.000
    H32      H        0.07810    0.57450    0.39780    1.000
    Cu5      Cu       0.19152    0.77536    0.27428    1.000
    Br5      Br       0.20232    0.66961    0.23768    1.000
    Se9      Se       0.05312    0.74633    0.27534    1.000
    Se10     Se       0.19871    0.88698    0.34848    1.000
    N9       N        0.13560    0.81720    0.22170    1.000
    C41      C        0.07600    0.80310    0.22030    1.000
    C42      C        0.03610    0.82680    0.18250    1.000
    H33      H        0.99400    0.81610    0.18290    1.000
    C43      C        0.05910    0.86620    0.14430    1.000
    H34      H        0.03290    0.88340    0.11810    1.000
    C44      C        0.12120    0.88010    0.14510    1.000
    H35      H        0.13820    0.90700    0.11930    1.000
    C45      C        0.15700    0.85490    0.18290    1.000
    H36      H        0.19950    0.86400    0.18240    1.000
    N10      N        0.18570    0.76170    0.35460    1.000
    C46      C        0.18900    0.81110    0.38540    1.000
    C47      C        0.18540    0.80420    0.43930    1.000
    H37      H        0.18800    0.83890    0.46190    1.000
    C48      C        0.17810    0.74660    0.46090    1.000
    H38      H        0.17580    0.74190    0.49840    1.000
    C49      C        0.17410    0.69750    0.42970    1.000
    H39      H        0.16880    0.65780    0.44430    1.000
    C50      C        0.17820    0.70630    0.37520    1.000
    H40      H        0.17550    0.67190    0.35220    1.000
    Cu6      Cu       0.69152    0.27536    0.77428    1.000
    Br6      Br       0.70232    0.16961    0.73768    1.000
    Se11     Se       0.55312    0.24633    0.77534    1.000
    Se12     Se       0.69871    0.38698    0.84848    1.000
    N11      N        0.63560    0.31720    0.72170    1.000
    C51      C        0.57600    0.30310    0.72030    1.000
    C52      C        0.53610    0.32680    0.68250    1.000
    H41      H        0.49400    0.31610    0.68290    1.000
    C53      C        0.55910    0.36620    0.64430    1.000
    H42      H        0.53290    0.38340    0.61810    1.000
    C54      C        0.62120    0.38010    0.64510    1.000
    H43      H        0.63820    0.40700    0.61930    1.000
    C55      C        0.65700    0.35490    0.68290    1.000
    H44      H        0.69950    0.36400    0.68240    1.000
    N12      N        0.68570    0.26170    0.85460    1.000
    C56      C        0.68900    0.31110    0.88540    1.000
    C57      C        0.68540    0.30420    0.93930    1.000
    H45      H        0.68800    0.33890    0.96190    1.000
    C58      C        0.67810    0.24660    0.96090    1.000
    H46      H        0.67580    0.24190    0.99840    1.000
    C59      C        0.67410    0.19750    0.92970    1.000
    H47      H        0.66880    0.15780    0.94430    1.000
    C60      C        0.67820    0.20630    0.87520    1.000
    H48      H        0.67550    0.17190    0.85220    1.000
    Cu7      Cu       0.30848    0.22464    0.77428    1.000
    Br7      Br       0.29768    0.33039    0.73768    1.000
    Se13     Se       0.44688    0.25367    0.77534    1.000
    Se14     Se       0.30129    0.11302    0.84848    1.000
    N13      N        0.36440    0.18280    0.72170    1.000
    C61      C        0.42400    0.19690    0.72030    1.000
    C62      C        0.46390    0.17320    0.68250    1.000
    H49      H        0.50600    0.18390    0.68290    1.000
    C63      C        0.44090    0.13380    0.64430    1.000
    H50      H        0.46710    0.11660    0.61810    1.000
    C64      C        0.37880    0.11990    0.64510    1.000
    H51      H        0.36180    0.09300    0.61930    1.000
    C65      C        0.34300    0.14510    0.68290    1.000
    H52      H        0.30050    0.13600    0.68240    1.000
    N14      N        0.31430    0.23830    0.85460    1.000
    C66      C        0.31100    0.18890    0.88540    1.000
    C67      C        0.31460    0.19580    0.93930    1.000
    H53      H        0.31200    0.16110    0.96190    1.000
    C68      C        0.32190    0.25340    0.96090    1.000
    H54      H        0.32420    0.25810    0.99840    1.000
    C69      C        0.32590    0.30250    0.92970    1.000
    H55      H        0.33120    0.34220    0.94430    1.000
    C70      C        0.32180    0.29370    0.87520    1.000
    H56      H        0.32450    0.32810    0.85220    1.000
    Cu8      Cu       0.80848    0.72464    0.27428    1.000
    Br8      Br       0.79768    0.83039    0.23768    1.000
    Se15     Se       0.94688    0.75367    0.27534    1.000
    Se16     Se       0.80129    0.61302    0.34848    1.000
    N15      N        0.86440    0.68280    0.22170    1.000
    C71      C        0.92400    0.69690    0.22030    1.000
    C72      C        0.96390    0.67320    0.18250    1.000
    H57      H        0.00600    0.68390    0.18290    1.000
    C73      C        0.94090    0.63380    0.14430    1.000
    H58      H        0.96710    0.61660    0.11810    1.000
    C74      C        0.87880    0.61990    0.14510    1.000
    H59      H        0.86180    0.59300    0.11930    1.000
    C75      C        0.84300    0.64510    0.18290    1.000
    H60      H        0.80050    0.63600    0.18240    1.000
    N16      N        0.81430    0.73830    0.35460    1.000
    C76      C        0.81100    0.68890    0.38540    1.000
    C77      C        0.81460    0.69580    0.43930    1.000
    H61      H        0.81200    0.66110    0.46190    1.000
    C78      C        0.82190    0.75340    0.46090    1.000
    H62      H        0.82420    0.75810    0.49840    1.000
    C79      C        0.82590    0.80250    0.42970    1.000
    H63      H        0.83120    0.84220    0.44430    1.000
    C80      C        0.82180    0.79370    0.37520    1.000
    H64      H        0.82450    0.82810    0.35220    1.000
    Cu9      Cu       0.97464    0.05848    0.52428    1.000
    Br9      Br       0.08039    0.04768    0.48768    1.000
    Se17     Se       0.00367    0.19688    0.52534    1.000
    Se18     Se       0.86302    0.05129    0.59848    1.000
    N17      N        0.93280    0.11440    0.47170    1.000
    C81      C        0.94690    0.17400    0.47030    1.000
    C82      C        0.92320    0.21390    0.43250    1.000
    H65      H        0.93390    0.25600    0.43290    1.000
    C83      C        0.88380    0.19090    0.39430    1.000
    H66      H        0.86660    0.21710    0.36810    1.000
    C84      C        0.86990    0.12880    0.39510    1.000
    H67      H        0.84300    0.11180    0.36930    1.000
    C85      C        0.89510    0.09300    0.43290    1.000
    H68      H        0.88600    0.05050    0.43240    1.000
    N18      N        0.98830    0.06430    0.60460    1.000
    C86      C        0.93890    0.06100    0.63540    1.000
    C87      C        0.94580    0.06460    0.68930    1.000
    H69      H        0.91110    0.06200    0.71190    1.000
    C88      C        0.00340    0.07190    0.71090    1.000
    H70      H        0.00810    0.07420    0.74840    1.000
    C89      C        0.05250    0.07590    0.67970    1.000
    H71      H        0.09220    0.08120    0.69430    1.000
    C90      C        0.04370    0.07180    0.62520    1.000
    H72      H        0.07810    0.07450    0.60220    1.000
    Cu10     Cu       0.47464    0.55848    0.02428    1.000
    Br10     Br       0.58039    0.54768    0.98768    1.000
    Se19     Se       0.50367    0.69688    0.02534    1.000
    Se20     Se       0.36302    0.55129    0.09848    1.000
    N19      N        0.43280    0.61440    0.97170    1.000
    C91      C        0.44690    0.67400    0.97030    1.000
    C92      C        0.42320    0.71390    0.93250    1.000
    H73      H        0.43390    0.75600    0.93290    1.000
    C93      C        0.38380    0.69090    0.89430    1.000
    H74      H        0.36660    0.71710    0.86810    1.000
    C94      C        0.36990    0.62880    0.89510    1.000
    H75      H        0.34300    0.61180    0.86930    1.000
    C95      C        0.39510    0.59300    0.93290    1.000
    H76      H        0.38600    0.55050    0.93240    1.000
    N20      N        0.48830    0.56430    0.10460    1.000
    C96      C        0.43890    0.56100    0.13540    1.000
    C97      C        0.44580    0.56460    0.18930    1.000
    H77      H        0.41110    0.56200    0.21190    1.000
    C98      C        0.50340    0.57190    0.21090    1.000
    H78      H        0.50810    0.57420    0.24840    1.000
    C99      C        0.55250    0.57590    0.17970    1.000
    H79      H        0.59220    0.58120    0.19430    1.000
    C100     C        0.54370    0.57180    0.12520    1.000
    H80      H        0.57810    0.57450    0.10220    1.000
    Cu11     Cu       0.52536    0.94152    0.02428    1.000
    Br11     Br       0.41961    0.95232    0.98768    1.000
    Se21     Se       0.49633    0.80312    0.02534    1.000
    Se22     Se       0.63698    0.94871    0.09848    1.000
    N21      N        0.56720    0.88560    0.97170    1.000
    C101     C        0.55310    0.82600    0.97030    1.000
    C102     C        0.57680    0.78610    0.93250    1.000
    H81      H        0.56610    0.74400    0.93290    1.000
    C103     C        0.61620    0.80910    0.89430    1.000
    H82      H        0.63340    0.78290    0.86810    1.000
    C104     C        0.63010    0.87120    0.89510    1.000
    H83      H        0.65700    0.88820    0.86930    1.000
    C105     C        0.60490    0.90700    0.93290    1.000
    H84      H        0.61400    0.94950    0.93240    1.000
    N22      N        0.51170    0.93570    0.10460    1.000
    C106     C        0.56110    0.93900    0.13540    1.000
    C107     C        0.55420    0.93540    0.18930    1.000
    H85      H        0.58890    0.93800    0.21190    1.000
    C108     C        0.49660    0.92810    0.21090    1.000
    H86      H        0.49190    0.92580    0.24840    1.000
    C109     C        0.44750    0.92410    0.17970    1.000
    H87      H        0.40780    0.91880    0.19430    1.000
    C110     C        0.45630    0.92820    0.12520    1.000
    H88      H        0.42190    0.92550    0.10220    1.000
    Cu12     Cu       0.02536    0.44152    0.52428    1.000
    Br12     Br       0.91961    0.45232    0.48768    1.000
    Se23     Se       0.99633    0.30312    0.52534    1.000
    Se24     Se       0.13698    0.44871    0.59848    1.000
    N23      N        0.06720    0.38560    0.47170    1.000
    C111     C        0.05310    0.32600    0.47030    1.000
    C112     C        0.07680    0.28610    0.43250    1.000
    H89      H        0.06610    0.24400    0.43290    1.000
    C113     C        0.11620    0.30910    0.39430    1.000
    H90      H        0.13340    0.28290    0.36810    1.000
    C114     C        0.13010    0.37120    0.39510    1.000
    H91      H        0.15700    0.38820    0.36930    1.000
    C115     C        0.10490    0.40700    0.43290    1.000
    H92      H        0.11400    0.44950    0.43240    1.000
    N24      N        0.01170    0.43570    0.60460    1.000
    C116     C        0.06110    0.43900    0.63540    1.000
    C117     C        0.05420    0.43540    0.68930    1.000
    H93      H        0.08890    0.43800    0.71190    1.000
    C118     C        0.99660    0.42810    0.71090    1.000
    H94      H        0.99190    0.42580    0.74840    1.000
    C119     C        0.94750    0.42410    0.67970    1.000
    H95      H        0.90780    0.41880    0.69430    1.000
    C120     C        0.95630    0.42820    0.62520    1.000
    H96      H        0.92190    0.42550    0.60220    1.000
    Cu13     Cu       0.80848    0.22464    0.72572    1.000
    Br13     Br       0.79768    0.33039    0.76232    1.000
    Se25     Se       0.94688    0.25367    0.72466    1.000
    Se26     Se       0.80129    0.11302    0.65152    1.000
    N25      N        0.86440    0.18280    0.77830    1.000
    C121     C        0.92400    0.19690    0.77970    1.000
    C122     C        0.96390    0.17320    0.81750    1.000
    H97      H        0.00600    0.18390    0.81710    1.000
    C123     C        0.94090    0.13380    0.85570    1.000
    H98      H        0.96710    0.11660    0.88190    1.000
    C124     C        0.87880    0.11990    0.85490    1.000
    H99      H        0.86180    0.09300    0.88070    1.000
    C125     C        0.84300    0.14510    0.81710    1.000
    H100     H        0.80050    0.13600    0.81760    1.000
    N26      N        0.81430    0.23830    0.64540    1.000
    C126     C        0.81100    0.18890    0.61460    1.000
    C127     C        0.81460    0.19580    0.56070    1.000
    H101     H        0.81200    0.16110    0.53810    1.000
    C128     C        0.82190    0.25340    0.53910    1.000
    H102     H        0.82420    0.25810    0.50160    1.000
    C129     C        0.82590    0.30250    0.57030    1.000
    H103     H        0.83120    0.34220    0.55570    1.000
    C130     C        0.82180    0.29370    0.62480    1.000
    H104     H        0.82450    0.32810    0.64780    1.000
    Cu14     Cu       0.30848    0.72464    0.22572    1.000
    Br14     Br       0.29768    0.83039    0.26232    1.000
    Se27     Se       0.44688    0.75367    0.22466    1.000
    Se28     Se       0.30129    0.61302    0.15152    1.000
    N27      N        0.36440    0.68280    0.27830    1.000
    C131     C        0.42400    0.69690    0.27970    1.000
    C132     C        0.46390    0.67320    0.31750    1.000
    H105     H        0.50600    0.68390    0.31710    1.000
    C133     C        0.44090    0.63380    0.35570    1.000
    H106     H        0.46710    0.61660    0.38190    1.000
    C134     C        0.37880    0.61990    0.35490    1.000
    H107     H        0.36180    0.59300    0.38070    1.000
    C135     C        0.34300    0.64510    0.31710    1.000
    H108     H        0.30050    0.63600    0.31760    1.000
    N28      N        0.31430    0.73830    0.14540    1.000
    C136     C        0.31100    0.68890    0.11460    1.000
    C137     C        0.31460    0.69580    0.06070    1.000
    H109     H        0.31200    0.66110    0.03810    1.000
    C138     C        0.32190    0.75340    0.03910    1.000
    H110     H        0.32420    0.75810    0.00160    1.000
    C139     C        0.32590    0.80250    0.07030    1.000
    H111     H        0.33120    0.84220    0.05570    1.000
    C140     C        0.32180    0.79370    0.12480    1.000
    H112     H        0.32450    0.82810    0.14780    1.000
    Cu15     Cu       0.69152    0.77536    0.22572    1.000
    Br15     Br       0.70232    0.66961    0.26232    1.000
    Se29     Se       0.55312    0.74633    0.22466    1.000
    Se30     Se       0.69871    0.88698    0.15152    1.000
    N29      N        0.63560    0.81720    0.27830    1.000
    C141     C        0.57600    0.80310    0.27970    1.000
    C142     C        0.53610    0.82680    0.31750    1.000
    H113     H        0.49400    0.81610    0.31710    1.000
    C143     C        0.55910    0.86620    0.35570    1.000
    H114     H        0.53290    0.88340    0.38190    1.000
    C144     C        0.62120    0.88010    0.35490    1.000
    H115     H        0.63820    0.90700    0.38070    1.000
    C145     C        0.65700    0.85490    0.31710    1.000
    H116     H        0.69950    0.86400    0.31760    1.000
    N30      N        0.68570    0.76170    0.14540    1.000
    C146     C        0.68900    0.81110    0.11460    1.000
    C147     C        0.68540    0.80420    0.06070    1.000
    H117     H        0.68800    0.83890    0.03810    1.000
    C148     C        0.67810    0.74660    0.03910    1.000
    H118     H        0.67580    0.74190    0.00160    1.000
    C149     C        0.67410    0.69750    0.07030    1.000
    H119     H        0.66880    0.65780    0.05570    1.000
    C150     C        0.67820    0.70630    0.12480    1.000
    H120     H        0.67550    0.67190    0.14780    1.000
    Cu16     Cu       0.19152    0.27536    0.72572    1.000
    Br16     Br       0.20232    0.16961    0.76232    1.000
    Se31     Se       0.05312    0.24633    0.72466    1.000
    Se32     Se       0.19871    0.38698    0.65152    1.000
    N31      N        0.13560    0.31720    0.77830    1.000
    C151     C        0.07600    0.30310    0.77970    1.000
    C152     C        0.03610    0.32680    0.81750    1.000
    H121     H        0.99400    0.31610    0.81710    1.000
    C153     C        0.05910    0.36620    0.85570    1.000
    H122     H        0.03290    0.38340    0.88190    1.000
    C154     C        0.12120    0.38010    0.85490    1.000
    H123     H        0.13820    0.40700    0.88070    1.000
    C155     C        0.15700    0.35490    0.81710    1.000
    H124     H        0.19950    0.36400    0.81760    1.000
    N32      N        0.18570    0.26170    0.64540    1.000
    C156     C        0.18900    0.31110    0.61460    1.000
    C157     C        0.18540    0.30420    0.56070    1.000
    H125     H        0.18800    0.33890    0.53810    1.000
    C158     C        0.17810    0.24660    0.53910    1.000
    H126     H        0.17580    0.24190    0.50160    1.000
    C159     C        0.17410    0.19750    0.57030    1.000
    H127     H        0.16880    0.15780    0.55570    1.000
    C160     C        0.17820    0.20630    0.62480    1.000
    H128     H        0.17550    0.17190    0.64780    1.000
    Cu17     Cu       0.30848    0.77536    0.72572    1.000
    Br17     Br       0.29768    0.66961    0.76232    1.000
    Se33     Se       0.44688    0.74633    0.72466    1.000
    Se34     Se       0.30129    0.88698    0.65152    1.000
    N33      N        0.36440    0.81720    0.77830    1.000
    C161     C        0.42400    0.80310    0.77970    1.000
    C162     C        0.46390    0.82680    0.81750    1.000
    H129     H        0.50600    0.81610    0.81710    1.000
    C163     C        0.44090    0.86620    0.85570    1.000
    H130     H        0.46710    0.88340    0.88190    1.000
    C164     C        0.37880    0.88010    0.85490    1.000
    H131     H        0.36180    0.90700    0.88070    1.000
    C165     C        0.34300    0.85490    0.81710    1.000
    H132     H        0.30050    0.86400    0.81760    1.000
    N34      N        0.31430    0.76170    0.64540    1.000
    C166     C        0.31100    0.81110    0.61460    1.000
    C167     C        0.31460    0.80420    0.56070    1.000
    H133     H        0.31200    0.83890    0.53810    1.000
    C168     C        0.32190    0.74660    0.53910    1.000
    H134     H        0.32420    0.74190    0.50160    1.000
    C169     C        0.32590    0.69750    0.57030    1.000
    H135     H        0.33120    0.65780    0.55570    1.000
    C170     C        0.32180    0.70630    0.62480    1.000
    H136     H        0.32450    0.67190    0.64780    1.000
    Cu18     Cu       0.80848    0.27536    0.22572    1.000
    Br18     Br       0.79768    0.16961    0.26232    1.000
    Se35     Se       0.94688    0.24633    0.22466    1.000
    Se36     Se       0.80129    0.38698    0.15152    1.000
    N35      N        0.86440    0.31720    0.27830    1.000
    C171     C        0.92400    0.30310    0.27970    1.000
    C172     C        0.96390    0.32680    0.31750    1.000
    H137     H        0.00600    0.31610    0.31710    1.000
    C173     C        0.94090    0.36620    0.35570    1.000
    H138     H        0.96710    0.38340    0.38190    1.000
    C174     C        0.87880    0.38010    0.35490    1.000
    H139     H        0.86180    0.40700    0.38070    1.000
    C175     C        0.84300    0.35490    0.31710    1.000
    H140     H        0.80050    0.36400    0.31760    1.000
    N36      N        0.81430    0.26170    0.14540    1.000
    C176     C        0.81100    0.31110    0.11460    1.000
    C177     C        0.81460    0.30420    0.06070    1.000
    H141     H        0.81200    0.33890    0.03810    1.000
    C178     C        0.82190    0.24660    0.03910    1.000
    H142     H        0.82420    0.24190    0.00160    1.000
    C179     C        0.82590    0.19750    0.07030    1.000
    H143     H        0.83120    0.15780    0.05570    1.000
    C180     C        0.82180    0.20630    0.12480    1.000
    H144     H        0.82450    0.17190    0.14780    1.000
    Cu19     Cu       0.19152    0.22464    0.22572    1.000
    Br19     Br       0.20232    0.33039    0.26232    1.000
    Se37     Se       0.05312    0.25367    0.22466    1.000
    Se38     Se       0.19871    0.11302    0.15152    1.000
    N37      N        0.13560    0.18280    0.27830    1.000
    C181     C        0.07600    0.19690    0.27970    1.000
    C182     C        0.03610    0.17320    0.31750    1.000
    H145     H        0.99400    0.18390    0.31710    1.000
    C183     C        0.05910    0.13380    0.35570    1.000
    H146     H        0.03290    0.11660    0.38190    1.000
    C184     C        0.12120    0.11990    0.35490    1.000
    H147     H        0.13820    0.09300    0.38070    1.000
    C185     C        0.15700    0.14510    0.31710    1.000
    H148     H        0.19950    0.13600    0.31760    1.000
    N38      N        0.18570    0.23830    0.14540    1.000
    C186     C        0.18900    0.18890    0.11460    1.000
    C187     C        0.18540    0.19580    0.06070    1.000
    H149     H        0.18800    0.16110    0.03810    1.000
    C188     C        0.17810    0.25340    0.03910    1.000
    H150     H        0.17580    0.25810    0.00160    1.000
    C189     C        0.17410    0.30250    0.07030    1.000
    H151     H        0.16880    0.34220    0.05570    1.000
    C190     C        0.17820    0.29370    0.12480    1.000
    H152     H        0.17550    0.32810    0.14780    1.000
    Cu20     Cu       0.69152    0.72464    0.72572    1.000
    Br20     Br       0.70232    0.83039    0.76232    1.000
    Se39     Se       0.55312    0.75367    0.72466    1.000
    Se40     Se       0.69871    0.61302    0.65152    1.000
    N39      N        0.63560    0.68280    0.77830    1.000
    C191     C        0.57600    0.69690    0.77970    1.000
    C192     C        0.53610    0.67320    0.81750    1.000
    H153     H        0.49400    0.68390    0.81710    1.000
    C193     C        0.55910    0.63380    0.85570    1.000
    H154     H        0.53290    0.61660    0.88190    1.000
    C194     C        0.62120    0.61990    0.85490    1.000
    H155     H        0.63820    0.59300    0.88070    1.000
    C195     C        0.65700    0.64510    0.81710    1.000
    H156     H        0.69950    0.63600    0.81760    1.000
    N40      N        0.68570    0.73830    0.64540    1.000
    C196     C        0.68900    0.68890    0.61460    1.000
    C197     C        0.68540    0.69580    0.56070    1.000
    H157     H        0.68800    0.66110    0.53810    1.000
    C198     C        0.67810    0.75340    0.53910    1.000
    H158     H        0.67580    0.75810    0.50160    1.000
    C199     C        0.67410    0.80250    0.57030    1.000
    H159     H        0.66880    0.84220    0.55570    1.000
    C200     C        0.67820    0.79370    0.62480    1.000
    H160     H        0.67550    0.82810    0.64780    1.000
    Cu21     Cu       0.47464    0.94152    0.52428    1.000
    Br21     Br       0.58039    0.95232    0.48768    1.000
    Se41     Se       0.50367    0.80312    0.52534    1.000
    Se42     Se       0.36302    0.94871    0.59848    1.000
    N41      N        0.43280    0.88560    0.47170    1.000
    C201     C        0.44690    0.82600    0.47030    1.000
    C202     C        0.42320    0.78610    0.43250    1.000
    H161     H        0.43390    0.74400    0.43290    1.000
    C203     C        0.38380    0.80910    0.39430    1.000
    H162     H        0.36660    0.78290    0.36810    1.000
    C204     C        0.36990    0.87120    0.39510    1.000
    H163     H        0.34300    0.88820    0.36930    1.000
    C205     C        0.39510    0.90700    0.43290    1.000
    H164     H        0.38600    0.94950    0.43240    1.000
    N42      N        0.48830    0.93570    0.60460    1.000
    C206     C        0.43890    0.93900    0.63540    1.000
    C207     C        0.44580    0.93540    0.68930    1.000
    H165     H        0.41110    0.93800    0.71190    1.000
    C208     C        0.50340    0.92810    0.71090    1.000
    H166     H        0.50810    0.92580    0.74840    1.000
    C209     C        0.55250    0.92410    0.67970    1.000
    H167     H        0.59220    0.91880    0.69430    1.000
    C210     C        0.54370    0.92820    0.62520    1.000
    H168     H        0.57810    0.92550    0.60220    1.000
    Cu22     Cu       0.97464    0.44152    0.02428    1.000
    Br22     Br       0.08039    0.45232    0.98768    1.000
    Se43     Se       0.00367    0.30312    0.02534    1.000
    Se44     Se       0.86302    0.44871    0.09848    1.000
    N43      N        0.93280    0.38560    0.97170    1.000
    C211     C        0.94690    0.32600    0.97030    1.000
    C212     C        0.92320    0.28610    0.93250    1.000
    H169     H        0.93390    0.24400    0.93290    1.000
    C213     C        0.88380    0.30910    0.89430    1.000
    H170     H        0.86660    0.28290    0.86810    1.000
    C214     C        0.86990    0.37120    0.89510    1.000
    H171     H        0.84300    0.38820    0.86930    1.000
    C215     C        0.89510    0.40700    0.93290    1.000
    H172     H        0.88600    0.44950    0.93240    1.000
    N44      N        0.98830    0.43570    0.10460    1.000
    C216     C        0.93890    0.43900    0.13540    1.000
    C217     C        0.94580    0.43540    0.18930    1.000
    H173     H        0.91110    0.43800    0.21190    1.000
    C218     C        0.00340    0.42810    0.21090    1.000
    H174     H        0.00810    0.42580    0.24840    1.000
    C219     C        0.05250    0.42410    0.17970    1.000
    H175     H        0.09220    0.41880    0.19430    1.000
    C220     C        0.04370    0.42820    0.12520    1.000
    H176     H        0.07810    0.42550    0.10220    1.000
    Cu23     Cu       0.02536    0.05848    0.02428    1.000
    Br23     Br       0.91961    0.04768    0.98768    1.000
    Se45     Se       0.99633    0.19688    0.02534    1.000
    Se46     Se       0.13698    0.05129    0.09848    1.000
    N45      N        0.06720    0.11440    0.97170    1.000
    C221     C        0.05310    0.17400    0.97030    1.000
    C222     C        0.07680    0.21390    0.93250    1.000
    H177     H        0.06610    0.25600    0.93290    1.000
    C223     C        0.11620    0.19090    0.89430    1.000
    H178     H        0.13340    0.21710    0.86810    1.000
    C224     C        0.13010    0.12880    0.89510    1.000
    H179     H        0.15700    0.11180    0.86930    1.000
    C225     C        0.10490    0.09300    0.93290    1.000
    H180     H        0.11400    0.05050    0.93240    1.000
    N46      N        0.01170    0.06430    0.10460    1.000
    C226     C        0.06110    0.06100    0.13540    1.000
    C227     C        0.05420    0.06460    0.18930    1.000
    H181     H        0.08890    0.06200    0.21190    1.000
    C228     C        0.99660    0.07190    0.21090    1.000
    H182     H        0.99190    0.07420    0.24840    1.000
    C229     C        0.94750    0.07590    0.17970    1.000
    H183     H        0.90780    0.08120    0.19430    1.000
    C230     C        0.95630    0.07180    0.12520    1.000
    H184     H        0.92190    0.07450    0.10220    1.000
    Cu24     Cu       0.52536    0.55848    0.52428    1.000
    Br24     Br       0.41961    0.54768    0.48768    1.000
    Se47     Se       0.49633    0.69688    0.52534    1.000
    Se48     Se       0.63698    0.55129    0.59848    1.000
    N47      N        0.56720    0.61440    0.47170    1.000
    C231     C        0.55310    0.67400    0.47030    1.000
    C232     C        0.57680    0.71390    0.43250    1.000
    H185     H        0.56610    0.75600    0.43290    1.000
    C233     C        0.61620    0.69090    0.39430    1.000
    H186     H        0.63340    0.71710    0.36810    1.000
    C234     C        0.63010    0.62880    0.39510    1.000
    H187     H        0.65700    0.61180    0.36930    1.000
    C235     C        0.60490    0.59300    0.43290    1.000
    H188     H        0.61400    0.55050    0.43240    1.000
    N48      N        0.51170    0.56430    0.60460    1.000
    C236     C        0.56110    0.56100    0.63540    1.000
    C237     C        0.55420    0.56460    0.68930    1.000
    H189     H        0.58890    0.56200    0.71190    1.000
    C238     C        0.49660    0.57190    0.71090    1.000
    H190     H        0.49190    0.57420    0.74840    1.000
    C239     C        0.44750    0.57590    0.67970    1.000
    H191     H        0.40780    0.58120    0.69430    1.000
    C240     C        0.45630    0.57180    0.62520    1.000
    H192     H        0.42190    0.57450    0.60220    1.000
    Cu25     Cu       0.69152    0.22464    0.27428    1.000
    Br25     Br       0.70232    0.33039    0.23768    1.000
    Se49     Se       0.55312    0.25367    0.27534    1.000
    Se50     Se       0.69871    0.11302    0.34848    1.000
    N49      N        0.63560    0.18280    0.22170    1.000
    C241     C        0.57600    0.19690    0.22030    1.000
    C242     C        0.53610    0.17320    0.18250    1.000
    H193     H        0.49400    0.18390    0.18290    1.000
    C243     C        0.55910    0.13380    0.14430    1.000
    H194     H        0.53290    0.11660    0.11810    1.000
    C244     C        0.62120    0.11990    0.14510    1.000
    H195     H        0.63820    0.09300    0.11930    1.000
    C245     C        0.65700    0.14510    0.18290    1.000
    H196     H        0.69950    0.13600    0.18240    1.000
    N50      N        0.68570    0.23830    0.35460    1.000
    C246     C        0.68900    0.18890    0.38540    1.000
    C247     C        0.68540    0.19580    0.43930    1.000
    H197     H        0.68800    0.16110    0.46190    1.000
    C248     C        0.67810    0.25340    0.46090    1.000
    H198     H        0.67580    0.25810    0.49840    1.000
    C249     C        0.67410    0.30250    0.42970    1.000
    H199     H        0.66880    0.34220    0.44430    1.000
    C250     C        0.67820    0.29370    0.37520    1.000
    H200     H        0.67550    0.32810    0.35220    1.000
    Cu26     Cu       0.19152    0.72464    0.77428    1.000
    Br26     Br       0.20232    0.83039    0.73768    1.000
    Se51     Se       0.05312    0.75367    0.77534    1.000
    Se52     Se       0.19871    0.61302    0.84848    1.000
    N51      N        0.13560    0.68280    0.72170    1.000
    C251     C        0.07600    0.69690    0.72030    1.000
    C252     C        0.03610    0.67320    0.68250    1.000
    H201     H        0.99400    0.68390    0.68290    1.000
    C253     C        0.05910    0.63380    0.64430    1.000
    H202     H        0.03290    0.61660    0.61810    1.000
    C254     C        0.12120    0.61990    0.64510    1.000
    H203     H        0.13820    0.59300    0.61930    1.000
    C255     C        0.15700    0.64510    0.68290    1.000
    H204     H        0.19950    0.63600    0.68240    1.000
    N52      N        0.18570    0.73830    0.85460    1.000
    C256     C        0.18900    0.68890    0.88540    1.000
    C257     C        0.18540    0.69580    0.93930    1.000
    H205     H        0.18800    0.66110    0.96190    1.000
    C258     C        0.17810    0.75340    0.96090    1.000
    H206     H        0.17580    0.75810    0.99840    1.000
    C259     C        0.17410    0.80250    0.92970    1.000
    H207     H        0.16880    0.84220    0.94430    1.000
    C260     C        0.17820    0.79370    0.87520    1.000
    H208     H        0.17550    0.82810    0.85220    1.000
    Cu27     Cu       0.80848    0.77536    0.77428    1.000
    Br27     Br       0.79768    0.66961    0.73768    1.000
    Se53     Se       0.94688    0.74633    0.77534    1.000
    Se54     Se       0.80129    0.88698    0.84848    1.000
    N53      N        0.86440    0.81720    0.72170    1.000
    C261     C        0.92400    0.80310    0.72030    1.000
    C262     C        0.96390    0.82680    0.68250    1.000
    H209     H        0.00600    0.81610    0.68290    1.000
    C263     C        0.94090    0.86620    0.64430    1.000
    H210     H        0.96710    0.88340    0.61810    1.000
    C264     C        0.87880    0.88010    0.64510    1.000
    H211     H        0.86180    0.90700    0.61930    1.000
    C265     C        0.84300    0.85490    0.68290    1.000
    H212     H        0.80050    0.86400    0.68240    1.000
    N54      N        0.81430    0.76170    0.85460    1.000
    C266     C        0.81100    0.81110    0.88540    1.000
    C267     C        0.81460    0.80420    0.93930    1.000
    H213     H        0.81200    0.83890    0.96190    1.000
    C268     C        0.82190    0.74660    0.96090    1.000
    H214     H        0.82420    0.74190    0.99840    1.000
    C269     C        0.82590    0.69750    0.92970    1.000
    H215     H        0.83120    0.65780    0.94430    1.000
    C270     C        0.82180    0.70630    0.87520    1.000
    H216     H        0.82450    0.67190    0.85220    1.000
    Cu28     Cu       0.30848    0.27536    0.27428    1.000
    Br28     Br       0.29768    0.16961    0.23768    1.000
    Se55     Se       0.44688    0.24633    0.27534    1.000
    Se56     Se       0.30129    0.38698    0.34848    1.000
    N55      N        0.36440    0.31720    0.22170    1.000
    C271     C        0.42400    0.30310    0.22030    1.000
    C272     C        0.46390    0.32680    0.18250    1.000
    H217     H        0.50600    0.31610    0.18290    1.000
    C273     C        0.44090    0.36620    0.14430    1.000
    H218     H        0.46710    0.38340    0.11810    1.000
    C274     C        0.37880    0.38010    0.14510    1.000
    H219     H        0.36180    0.40700    0.11930    1.000
    C275     C        0.34300    0.35490    0.18290    1.000
    H220     H        0.30050    0.36400    0.18240    1.000
    N56      N        0.31430    0.26170    0.35460    1.000
    C276     C        0.31100    0.31110    0.38540    1.000
    C277     C        0.31460    0.30420    0.43930    1.000
    H221     H        0.31200    0.33890    0.46190    1.000
    C278     C        0.32190    0.24660    0.46090    1.000
    H222     H        0.32420    0.24190    0.49840    1.000
    C279     C        0.32590    0.19750    0.42970    1.000
    H223     H        0.33120    0.15780    0.44430    1.000
    C280     C        0.32180    0.20630    0.37520    1.000
    H224     H        0.32450    0.17190    0.35220    1.000
    Cu29     Cu       0.52536    0.05848    0.47572    1.000
    Br29     Br       0.41961    0.04768    0.51232    1.000
    Se57     Se       0.49633    0.19688    0.47466    1.000
    Se58     Se       0.63698    0.05129    0.40152    1.000
    N57      N        0.56720    0.11440    0.52830    1.000
    C281     C        0.55310    0.17400    0.52970    1.000
    C282     C        0.57680    0.21390    0.56750    1.000
    H225     H        0.56610    0.25600    0.56710    1.000
    C283     C        0.61620    0.19090    0.60570    1.000
    H226     H        0.63340    0.21710    0.63190    1.000
    C284     C        0.63010    0.12880    0.60490    1.000
    H227     H        0.65700    0.11180    0.63070    1.000
    C285     C        0.60490    0.09300    0.56710    1.000
    H228     H        0.61400    0.05050    0.56760    1.000
    N58      N        0.51170    0.06430    0.39540    1.000
    C286     C        0.56110    0.06100    0.36460    1.000
    C287     C        0.55420    0.06460    0.31070    1.000
    H229     H        0.58890    0.06200    0.28810    1.000
    C288     C        0.49660    0.07190    0.28910    1.000
    H230     H        0.49190    0.07420    0.25160    1.000
    C289     C        0.44750    0.07590    0.32030    1.000
    H231     H        0.40780    0.08120    0.30570    1.000
    C290     C        0.45630    0.07180    0.37480    1.000
    H232     H        0.42190    0.07450    0.39780    1.000
    Cu30     Cu       0.02536    0.55848    0.97572    1.000
    Br30     Br       0.91961    0.54768    0.01232    1.000
    Se59     Se       0.99633    0.69688    0.97466    1.000
    Se60     Se       0.13698    0.55129    0.90152    1.000
    N59      N        0.06720    0.61440    0.02830    1.000
    C291     C        0.05310    0.67400    0.02970    1.000
    C292     C        0.07680    0.71390    0.06750    1.000
    H233     H        0.06610    0.75600    0.06710    1.000
    C293     C        0.11620    0.69090    0.10570    1.000
    H234     H        0.13340    0.71710    0.13190    1.000
    C294     C        0.13010    0.62880    0.10490    1.000
    H235     H        0.15700    0.61180    0.13070    1.000
    C295     C        0.10490    0.59300    0.06710    1.000
    H236     H        0.11400    0.55050    0.06760    1.000
    N60      N        0.01170    0.56430    0.89540    1.000
    C296     C        0.06110    0.56100    0.86460    1.000
    C297     C        0.05420    0.56460    0.81070    1.000
    H237     H        0.08890    0.56200    0.78810    1.000
    C298     C        0.99660    0.57190    0.78910    1.000
    H238     H        0.99190    0.57420    0.75160    1.000
    C299     C        0.94750    0.57590    0.82030    1.000
    H239     H        0.90780    0.58120    0.80570    1.000
    C300     C        0.95630    0.57180    0.87480    1.000
    H240     H        0.92190    0.57450    0.89780    1.000
    Cu31     Cu       0.97464    0.94152    0.97572    1.000
    Br31     Br       0.08039    0.95232    0.01232    1.000
    Se61     Se       0.00367    0.80312    0.97466    1.000
    Se62     Se       0.86302    0.94871    0.90152    1.000
    N61      N        0.93280    0.88560    0.02830    1.000
    C301     C        0.94690    0.82600    0.02970    1.000
    C302     C        0.92320    0.78610    0.06750    1.000
    H241     H        0.93390    0.74400    0.06710    1.000
    C303     C        0.88380    0.80910    0.10570    1.000
    H242     H        0.86660    0.78290    0.13190    1.000
    C304     C        0.86990    0.87120    0.10490    1.000
    H243     H        0.84300    0.88820    0.13070    1.000
    C305     C        0.89510    0.90700    0.06710    1.000
    H244     H        0.88600    0.94950    0.06760    1.000
    N62      N        0.98830    0.93570    0.89540    1.000
    C306     C        0.93890    0.93900    0.86460    1.000
    C307     C        0.94580    0.93540    0.81070    1.000
    H245     H        0.91110    0.93800    0.78810    1.000
    C308     C        0.00340    0.92810    0.78910    1.000
    H246     H        0.00810    0.92580    0.75160    1.000
    C309     C        0.05250    0.92410    0.82030    1.000
    H247     H        0.09220    0.91880    0.80570    1.000
    C310     C        0.04370    0.92820    0.87480    1.000
    H248     H        0.07810    0.92550    0.89780    1.000
    Cu32     Cu       0.47464    0.44152    0.47572    1.000
    Br32     Br       0.58039    0.45232    0.51232    1.000
    Se63     Se       0.50367    0.30312    0.47466    1.000
    Se64     Se       0.36302    0.44871    0.40152    1.000
    N63      N        0.43280    0.38560    0.52830    1.000
    C311     C        0.44690    0.32600    0.52970    1.000
    C312     C        0.42320    0.28610    0.56750    1.000
    H249     H        0.43390    0.24400    0.56710    1.000
    C313     C        0.38380    0.30910    0.60570    1.000
    H250     H        0.36660    0.28290    0.63190    1.000
    C314     C        0.36990    0.37120    0.60490    1.000
    H251     H        0.34300    0.38820    0.63070    1.000
    C315     C        0.39510    0.40700    0.56710    1.000
    H252     H        0.38600    0.44950    0.56760    1.000
    N64      N        0.48830    0.43570    0.39540    1.000
    C316     C        0.43890    0.43900    0.36460    1.000
    C317     C        0.44580    0.43540    0.31070    1.000
    H253     H        0.41110    0.43800    0.28810    1.000
    C318     C        0.50340    0.42810    0.28910    1.000
    H254     H        0.50810    0.42580    0.25160    1.000
    C319     C        0.55250    0.42410    0.32030    1.000
    H255     H        0.59220    0.41880    0.30570    1.000
    C320     C        0.54370    0.42820    0.37480    1.000
    H256     H        0.57810    0.42550    0.39780    1.000
