# CIF file generated by openbabel 3.1.0, see https://openbabel.org
data_I
_chemical_name_common 'image0'
_cell_length_a 30.863
_cell_length_b 15.7425
_cell_length_c 22.192
_cell_angle_alpha 90
_cell_angle_beta 133.173
_cell_angle_gamma 90
_space_group_name_H-M_alt 'P 1'
_space_group_name_Hall 'P 1'
loop_
    _symmetry_equiv_pos_as_xyz
    x,y,z
loop_
    _atom_site_label
    _atom_site_type_symbol
    _atom_site_fract_x
    _atom_site_fract_y
    _atom_site_fract_z
    _atom_site_occupancy
    La1      La       0.89008    0.86284    0.32831    1.000
    La2      La       0.83052    0.12895    0.48594    1.000
    N1       N        0.83790    0.00410    0.24190    1.000
    N2       N        0.13320    0.73080    0.53590    1.000
    O1       O        0.87570    0.88580    0.20330    1.000
    O2       O        0.84090    0.95490    0.09110    1.000
    O3       O        0.86630    0.97390    0.38280    1.000
    O4       O        0.82530    0.09840    0.37240    1.000
    O5       O        0.05960    0.85210    0.43160    1.000
    O6       O        0.98080    0.78080    0.38980    1.000
    O7       O        0.24710    0.76450    0.62670    1.000
    O8       O        0.27610    0.65040    0.70580    1.000
    C1       C        0.84980    0.94780    0.15480    1.000
    C2       C        0.82520    0.01320    0.17190    1.000
    C3       C        0.78650    0.07570    0.11670    1.000
    H1       H        0.77870    0.08280    0.06840    1.000
    C4       C        0.75880    0.12870    0.13260    1.000
    H2       H        0.73070    0.16880    0.09430    1.000
    C5       C        0.77500    0.11880    0.20740    1.000
    H3       H        0.75900    0.15420    0.22150    1.000
    C6       C        0.81480    0.05680    0.26110    1.000
    C7       C        0.83720    0.04250    0.34570    1.000
    C8       C        0.03500    0.78870    0.43100    1.000
    C9       C        0.07620    0.71840    0.48920    1.000
    C10      C        0.05400    0.64500    0.49690    1.000
    H4       H        0.01340    0.63770    0.46450    1.000
    C11      C        0.09440    0.58410    0.55410    1.000
    H5       H        0.08100    0.53350    0.55830    1.000
    C12      C        0.15560    0.59930    0.60590    1.000
    H6       H        0.18380    0.56110    0.64710    1.000
    C13      C        0.17230    0.67400    0.59280    1.000
    C14      C        0.23610    0.69720    0.64510    1.000
    La3      La       0.39008    0.36284    0.32831    1.000
    La4      La       0.33052    0.62895    0.48594    1.000
    N3       N        0.33790    0.50410    0.24190    1.000
    N4       N        0.63320    0.23080    0.53590    1.000
    O9       O        0.37570    0.38580    0.20330    1.000
    O10      O        0.34090    0.45490    0.09110    1.000
    O11      O        0.36630    0.47390    0.38280    1.000
    O12      O        0.32530    0.59840    0.37240    1.000
    O13      O        0.55960    0.35210    0.43160    1.000
    O14      O        0.48080    0.28080    0.38980    1.000
    O15      O        0.74710    0.26450    0.62670    1.000
    O16      O        0.77610    0.15040    0.70580    1.000
    C15      C        0.34980    0.44780    0.15480    1.000
    C16      C        0.32520    0.51320    0.17190    1.000
    C17      C        0.28650    0.57570    0.11670    1.000
    H7       H        0.27870    0.58280    0.06840    1.000
    C18      C        0.25880    0.62870    0.13260    1.000
    H8       H        0.23070    0.66880    0.09430    1.000
    C19      C        0.27500    0.61880    0.20740    1.000
    H9       H        0.25900    0.65420    0.22150    1.000
    C20      C        0.31480    0.55680    0.26110    1.000
    C21      C        0.33720    0.54250    0.34570    1.000
    C22      C        0.53500    0.28870    0.43100    1.000
    C23      C        0.57620    0.21840    0.48920    1.000
    C24      C        0.55400    0.14500    0.49690    1.000
    H10      H        0.51340    0.13770    0.46450    1.000
    C25      C        0.59440    0.08410    0.55410    1.000
    H11      H        0.58100    0.03350    0.55830    1.000
    C26      C        0.65560    0.09930    0.60590    1.000
    H12      H        0.68380    0.06110    0.64710    1.000
    C27      C        0.67230    0.17400    0.59280    1.000
    C28      C        0.73610    0.19720    0.64510    1.000
    La5      La       0.10992    0.86284    0.17169    1.000
    La6      La       0.16948    0.12895    0.01406    1.000
    N5       N        0.16210    0.00410    0.25810    1.000
    N6       N        0.86680    0.73080    0.96410    1.000
    O17      O        0.12430    0.88580    0.29670    1.000
    O18      O        0.15910    0.95490    0.40890    1.000
    O19      O        0.13370    0.97390    0.11720    1.000
    O20      O        0.17470    0.09840    0.12760    1.000
    O21      O        0.94040    0.85210    0.06840    1.000
    O22      O        0.01920    0.78080    0.11020    1.000
    O23      O        0.75290    0.76450    0.87330    1.000
    O24      O        0.72390    0.65040    0.79420    1.000
    C29      C        0.15020    0.94780    0.34520    1.000
    C30      C        0.17480    0.01320    0.32810    1.000
    C31      C        0.21350    0.07570    0.38330    1.000
    H13      H        0.22130    0.08280    0.43160    1.000
    C32      C        0.24120    0.12870    0.36740    1.000
    H14      H        0.26930    0.16880    0.40570    1.000
    C33      C        0.22500    0.11880    0.29260    1.000
    H15      H        0.24100    0.15420    0.27850    1.000
    C34      C        0.18520    0.05680    0.23890    1.000
    C35      C        0.16280    0.04250    0.15430    1.000
    C36      C        0.96500    0.78870    0.06900    1.000
    C37      C        0.92380    0.71840    0.01080    1.000
    C38      C        0.94600    0.64500    0.00310    1.000
    H16      H        0.98660    0.63770    0.03550    1.000
    C39      C        0.90560    0.58410    0.94590    1.000
    H17      H        0.91900    0.53350    0.94170    1.000
    C40      C        0.84440    0.59930    0.89410    1.000
    H18      H        0.81620    0.56110    0.85290    1.000
    C41      C        0.82770    0.67400    0.90720    1.000
    C42      C        0.76390    0.69720    0.85490    1.000
    La7      La       0.60992    0.36284    0.17169    1.000
    La8      La       0.66948    0.62895    0.01406    1.000
    N7       N        0.66210    0.50410    0.25810    1.000
    N8       N        0.36680    0.23080    0.96410    1.000
    O25      O        0.62430    0.38580    0.29670    1.000
    O26      O        0.65910    0.45490    0.40890    1.000
    O27      O        0.63370    0.47390    0.11720    1.000
    O28      O        0.67470    0.59840    0.12760    1.000
    O29      O        0.44040    0.35210    0.06840    1.000
    O30      O        0.51920    0.28080    0.11020    1.000
    O31      O        0.25290    0.26450    0.87330    1.000
    O32      O        0.22390    0.15040    0.79420    1.000
    C43      C        0.65020    0.44780    0.34520    1.000
    C44      C        0.67480    0.51320    0.32810    1.000
    C45      C        0.71350    0.57570    0.38330    1.000
    H19      H        0.72130    0.58280    0.43160    1.000
    C46      C        0.74120    0.62870    0.36740    1.000
    H20      H        0.76930    0.66880    0.40570    1.000
    C47      C        0.72500    0.61880    0.29260    1.000
    H21      H        0.74100    0.65420    0.27850    1.000
    C48      C        0.68520    0.55680    0.23890    1.000
    C49      C        0.66280    0.54250    0.15430    1.000
    C50      C        0.46500    0.28870    0.06900    1.000
    C51      C        0.42380    0.21840    0.01080    1.000
    C52      C        0.44600    0.14500    0.00310    1.000
    H22      H        0.48660    0.13770    0.03550    1.000
    C53      C        0.40560    0.08410    0.94590    1.000
    H23      H        0.41900    0.03350    0.94170    1.000
    C54      C        0.34440    0.09930    0.89410    1.000
    H24      H        0.31620    0.06110    0.85290    1.000
    C55      C        0.32770    0.17400    0.90720    1.000
    C56      C        0.26390    0.19720    0.85490    1.000
    La9      La       0.10992    0.13716    0.67169    1.000
    La10     La       0.16948    0.87105    0.51406    1.000
    N9       N        0.16210    0.99590    0.75810    1.000
    N10      N        0.86680    0.26920    0.46410    1.000
    O33      O        0.12430    0.11420    0.79670    1.000
    O34      O        0.15910    0.04510    0.90890    1.000
    O35      O        0.13370    0.02610    0.61720    1.000
    O36      O        0.17470    0.90160    0.62760    1.000
    O37      O        0.94040    0.14790    0.56840    1.000
    O38      O        0.01920    0.21920    0.61020    1.000
    O39      O        0.75290    0.23550    0.37330    1.000
    O40      O        0.72390    0.34960    0.29420    1.000
    C57      C        0.15020    0.05220    0.84520    1.000
    C58      C        0.17480    0.98680    0.82810    1.000
    C59      C        0.21350    0.92430    0.88330    1.000
    H25      H        0.22130    0.91720    0.93160    1.000
    C60      C        0.24120    0.87130    0.86740    1.000
    H26      H        0.26930    0.83120    0.90570    1.000
    C61      C        0.22500    0.88120    0.79260    1.000
    H27      H        0.24100    0.84580    0.77850    1.000
    C62      C        0.18520    0.94320    0.73890    1.000
    C63      C        0.16280    0.95750    0.65430    1.000
    C64      C        0.96500    0.21130    0.56900    1.000
    C65      C        0.92380    0.28160    0.51080    1.000
    C66      C        0.94600    0.35500    0.50310    1.000
    H28      H        0.98660    0.36230    0.53550    1.000
    C67      C        0.90560    0.41590    0.44590    1.000
    H29      H        0.91900    0.46650    0.44170    1.000
    C68      C        0.84440    0.40070    0.39410    1.000
    H30      H        0.81620    0.43890    0.35290    1.000
    C69      C        0.82770    0.32600    0.40720    1.000
    C70      C        0.76390    0.30280    0.35490    1.000
    La11     La       0.60992    0.63716    0.67169    1.000
    La12     La       0.66948    0.37105    0.51406    1.000
    N11      N        0.66210    0.49590    0.75810    1.000
    N12      N        0.36680    0.76920    0.46410    1.000
    O41      O        0.62430    0.61420    0.79670    1.000
    O42      O        0.65910    0.54510    0.90890    1.000
    O43      O        0.63370    0.52610    0.61720    1.000
    O44      O        0.67470    0.40160    0.62760    1.000
    O45      O        0.44040    0.64790    0.56840    1.000
    O46      O        0.51920    0.71920    0.61020    1.000
    O47      O        0.25290    0.73550    0.37330    1.000
    O48      O        0.22390    0.84960    0.29420    1.000
    C71      C        0.65020    0.55220    0.84520    1.000
    C72      C        0.67480    0.48680    0.82810    1.000
    C73      C        0.71350    0.42430    0.88330    1.000
    H31      H        0.72130    0.41720    0.93160    1.000
    C74      C        0.74120    0.37130    0.86740    1.000
    H32      H        0.76930    0.33120    0.90570    1.000
    C75      C        0.72500    0.38120    0.79260    1.000
    H33      H        0.74100    0.34580    0.77850    1.000
    C76      C        0.68520    0.44320    0.73890    1.000
    C77      C        0.66280    0.45750    0.65430    1.000
    C78      C        0.46500    0.71130    0.56900    1.000
    C79      C        0.42380    0.78160    0.51080    1.000
    C80      C        0.44600    0.85500    0.50310    1.000
    H34      H        0.48660    0.86230    0.53550    1.000
    C81      C        0.40560    0.91590    0.44590    1.000
    H35      H        0.41900    0.96650    0.44170    1.000
    C82      C        0.34440    0.90070    0.39410    1.000
    H36      H        0.31620    0.93890    0.35290    1.000
    C83      C        0.32770    0.82600    0.40720    1.000
    C84      C        0.26390    0.80280    0.35490    1.000
    La13     La       0.89008    0.13716    0.82831    1.000
    La14     La       0.83052    0.87105    0.98594    1.000
    N13      N        0.83790    0.99590    0.74190    1.000
    N14      N        0.13320    0.26920    0.03590    1.000
    O49      O        0.87570    0.11420    0.70330    1.000
    O50      O        0.84090    0.04510    0.59110    1.000
    O51      O        0.86630    0.02610    0.88280    1.000
    O52      O        0.82530    0.90160    0.87240    1.000
    O53      O        0.05960    0.14790    0.93160    1.000
    O54      O        0.98080    0.21920    0.88980    1.000
    O55      O        0.24710    0.23550    0.12670    1.000
    O56      O        0.27610    0.34960    0.20580    1.000
    C85      C        0.84980    0.05220    0.65480    1.000
    C86      C        0.82520    0.98680    0.67190    1.000
    C87      C        0.78650    0.92430    0.61670    1.000
    H37      H        0.77870    0.91720    0.56840    1.000
    C88      C        0.75880    0.87130    0.63260    1.000
    H38      H        0.73070    0.83120    0.59430    1.000
    C89      C        0.77500    0.88120    0.70740    1.000
    H39      H        0.75900    0.84580    0.72150    1.000
    C90      C        0.81480    0.94320    0.76110    1.000
    C91      C        0.83720    0.95750    0.84570    1.000
    C92      C        0.03500    0.21130    0.93100    1.000
    C93      C        0.07620    0.28160    0.98920    1.000
    C94      C        0.05400    0.35500    0.99690    1.000
    H40      H        0.01340    0.36230    0.96450    1.000
    C95      C        0.09440    0.41590    0.05410    1.000
    H41      H        0.08100    0.46650    0.05830    1.000
    C96      C        0.15560    0.40070    0.10590    1.000
    H42      H        0.18380    0.43890    0.14710    1.000
    C97      C        0.17230    0.32600    0.09280    1.000
    C98      C        0.23610    0.30280    0.14510    1.000
    La15     La       0.39008    0.63716    0.82831    1.000
    La16     La       0.33052    0.37105    0.98594    1.000
    N15      N        0.33790    0.49590    0.74190    1.000
    N16      N        0.63320    0.76920    0.03590    1.000
    O57      O        0.37570    0.61420    0.70330    1.000
    O58      O        0.34090    0.54510    0.59110    1.000
    O59      O        0.36630    0.52610    0.88280    1.000
    O60      O        0.32530    0.40160    0.87240    1.000
    O61      O        0.55960    0.64790    0.93160    1.000
    O62      O        0.48080    0.71920    0.88980    1.000
    O63      O        0.74710    0.73550    0.12670    1.000
    O64      O        0.77610    0.84960    0.20580    1.000
    C99      C        0.34980    0.55220    0.65480    1.000
    C100     C        0.32520    0.48680    0.67190    1.000
    C101     C        0.28650    0.42430    0.61670    1.000
    H43      H        0.27870    0.41720    0.56840    1.000
    C102     C        0.25880    0.37130    0.63260    1.000
    H44      H        0.23070    0.33120    0.59430    1.000
    C103     C        0.27500    0.38120    0.70740    1.000
    H45      H        0.25900    0.34580    0.72150    1.000
    C104     C        0.31480    0.44320    0.76110    1.000
    C105     C        0.33720    0.45750    0.84570    1.000
    C106     C        0.53500    0.71130    0.93100    1.000
    C107     C        0.57620    0.78160    0.98920    1.000
    C108     C        0.55400    0.85500    0.99690    1.000
    H46      H        0.51340    0.86230    0.96450    1.000
    C109     C        0.59440    0.91590    0.05410    1.000
    H47      H        0.58100    0.96650    0.05830    1.000
    C110     C        0.65560    0.90070    0.10590    1.000
    H48      H        0.68380    0.93890    0.14710    1.000
    C111     C        0.67230    0.82600    0.09280    1.000
    C112     C        0.73610    0.80280    0.14510    1.000
