# CIF file generated by openbabel 3.1.0, see https://openbabel.org
data_I
_chemical_name_common 'RIFQEC_clean'
_cell_length_a 6.329
_cell_length_b 8.743
_cell_length_c 13
_cell_angle_alpha 105.61
_cell_angle_beta 90.55
_cell_angle_gamma 105.1
_space_group_name_H-M_alt 'P 1'
_space_group_name_Hall 'P 1'
loop_
    _symmetry_equiv_pos_as_xyz
    x,y,z
loop_
    _atom_site_label
    _atom_site_type_symbol
    _atom_site_fract_x
    _atom_site_fract_y
    _atom_site_fract_z
    _atom_site_occupancy
    Ce1      Ce       0.93974    0.96987    0.74275    1.000
    Ce2      Ce       0.69037    0.33301    0.92472    1.000
    Ce3      Ce       0.06026    0.03013    0.25725    1.000
    Ce4      Ce       0.30963    0.66699    0.07528    1.000
    C1       C        0.76740    0.60390    0.78090    1.000
    C2       C        0.95570    0.69430    0.87050    1.000
    C3       C        0.55400    0.94880    0.95450    1.000
    C4       C        0.90630    0.91950    0.47840    1.000
    C5       C        0.21460    0.29200    0.86900    1.000
    C6       C        0.23260    0.39610    0.21910    1.000
    C7       C        0.04430    0.30570    0.12950    1.000
    C8       C        0.44600    0.05120    0.04550    1.000
    C9       C        0.09370    0.08050    0.52160    1.000
    C10      C        0.78540    0.70800    0.13100    1.000
    O1       O        0.73510    0.68170    0.71630    1.000
    O2       O        0.66420    0.45880    0.77600    1.000
    O3       O        0.05510    0.83840    0.87390    1.000
    O4       O        0.99270    0.61350    0.93250    1.000
    O5       O        0.51940    0.79850    0.94450    1.000
    O6       O        0.67100    0.02830    0.89700    1.000
    O7       O        0.81430    0.85210    0.54580    1.000
    O8       O        0.85820    0.87180    0.37910    1.000
    O9       O        0.33810    0.43070    0.92390    1.000
    O10      O        0.01300    0.26900    0.83990    1.000
    O11      O        0.29690    0.16930    0.83980    1.000
    O12      O        0.63930    0.10290    0.70640    1.000
    O13      O        0.26490    0.31830    0.28370    1.000
    O14      O        0.33580    0.54120    0.22400    1.000
    O15      O        0.94490    0.16160    0.12610    1.000
    O16      O        0.00730    0.38650    0.06750    1.000
    O17      O        0.48060    0.20150    0.05550    1.000
    O18      O        0.32900    0.97170    0.10300    1.000
    O19      O        0.18570    0.14790    0.45420    1.000
    O20      O        0.14180    0.12820    0.62090    1.000
    O21      O        0.66190    0.56930    0.07610    1.000
    O22      O        0.98700    0.73100    0.16010    1.000
    O23      O        0.70310    0.83070    0.16020    1.000
    O24      O        0.36070    0.89710    0.29360    1.000
