# CIF file generated by openbabel 3.1.0, see https://openbabel.org
data_I
_chemical_name_common 'image0'
_cell_length_a 13.8618
_cell_length_b 13.8618
_cell_length_c 18.5079
_cell_angle_alpha 90
_cell_angle_beta 90
_cell_angle_gamma 120
_space_group_name_H-M_alt 'P 1'
_space_group_name_Hall 'P 1'
loop_
    _symmetry_equiv_pos_as_xyz
    x,y,z
loop_
    _atom_site_label
    _atom_site_type_symbol
    _atom_site_fract_x
    _atom_site_fract_y
    _atom_site_fract_z
    _atom_site_occupancy
    O1       O        0.64830    0.13550    0.16450    1.000
    C1       C        0.59880    0.02660    0.03330    1.000
    H1       H        0.66620    0.04460    0.05500    1.000
    O2       O        0.86450    0.51280    0.16450    1.000
    C2       C        0.97340    0.57220    0.03330    1.000
    H2       H        0.95540    0.62160    0.05500    1.000
    O3       O        0.48720    0.35170    0.16450    1.000
    C3       C        0.42780    0.40120    0.03330    1.000
    H3       H        0.37840    0.33380    0.05500    1.000
    O4       O        0.35170    0.86450    0.66450    1.000
    C4       C        0.40120    0.97340    0.53330    1.000
    H4       H        0.33380    0.95540    0.55500    1.000
    O5       O        0.13550    0.48720    0.66450    1.000
    C5       C        0.02660    0.42780    0.53330    1.000
    H5       H        0.04460    0.37840    0.55500    1.000
    O6       O        0.51280    0.64830    0.66450    1.000
    C6       C        0.57220    0.59880    0.53330    1.000
    H6       H        0.62160    0.66620    0.55500    1.000
    O7       O        0.13550    0.64830    0.83550    1.000
    C7       C        0.02660    0.59880    0.96670    1.000
    H7       H        0.04460    0.66620    0.94500    1.000
    O8       O        0.51280    0.86450    0.83550    1.000
    C8       C        0.57220    0.97340    0.96670    1.000
    H8       H        0.62160    0.95540    0.94500    1.000
    O9       O        0.35170    0.48720    0.83550    1.000
    C9       C        0.40120    0.42780    0.96670    1.000
    H9       H        0.33380    0.37840    0.94500    1.000
    O10      O        0.86450    0.35170    0.33550    1.000
    C10      C        0.97340    0.40120    0.46670    1.000
    H10      H        0.95540    0.33380    0.44500    1.000
    O11      O        0.48720    0.13550    0.33550    1.000
    C11      C        0.42780    0.02660    0.46670    1.000
    H11      H        0.37840    0.04460    0.44500    1.000
    O12      O        0.64830    0.51280    0.33550    1.000
    C12      C        0.59880    0.57220    0.46670    1.000
    H12      H        0.66620    0.62160    0.44500    1.000
    O13      O        0.35170    0.86450    0.83550    1.000
    C13      C        0.40120    0.97340    0.96670    1.000
    H13      H        0.33380    0.95540    0.94500    1.000
    O14      O        0.13550    0.48720    0.83550    1.000
    C14      C        0.02660    0.42780    0.96670    1.000
    H14      H        0.04460    0.37840    0.94500    1.000
    O15      O        0.51280    0.64830    0.83550    1.000
    C15      C        0.57220    0.59880    0.96670    1.000
    H15      H        0.62160    0.66620    0.94500    1.000
    O16      O        0.64830    0.13550    0.33550    1.000
    C16      C        0.59880    0.02660    0.46670    1.000
    H16      H        0.66620    0.04460    0.44500    1.000
    O17      O        0.86450    0.51280    0.33550    1.000
    C17      C        0.97340    0.57220    0.46670    1.000
    H17      H        0.95540    0.62160    0.44500    1.000
    O18      O        0.48720    0.35170    0.33550    1.000
    C18      C        0.42780    0.40120    0.46670    1.000
    H18      H        0.37840    0.33380    0.44500    1.000
    O19      O        0.86450    0.35170    0.16450    1.000
    C19      C        0.97340    0.40120    0.03330    1.000
    H19      H        0.95540    0.33380    0.05500    1.000
    O20      O        0.48720    0.13550    0.16450    1.000
    C20      C        0.42780    0.02660    0.03330    1.000
    H20      H        0.37840    0.04460    0.05500    1.000
    O21      O        0.64830    0.51280    0.16450    1.000
    C21      C        0.59880    0.57220    0.03330    1.000
    H21      H        0.66620    0.62160    0.05500    1.000
    O22      O        0.13550    0.64830    0.66450    1.000
    C22      C        0.02660    0.59880    0.53330    1.000
    H22      H        0.04460    0.66620    0.55500    1.000
    O23      O        0.51280    0.86450    0.66450    1.000
    C23      C        0.57220    0.97340    0.53330    1.000
    H23      H        0.62160    0.95540    0.55500    1.000
    O24      O        0.35170    0.48720    0.66450    1.000
    C24      C        0.40120    0.42780    0.53330    1.000
    H24      H        0.33380    0.37840    0.55500    1.000
    In1      In       0.75136    0.24864    0.25000    1.000
    N1       N        0.84120    0.15880    0.25000    1.000
    In2      In       0.75136    0.50272    0.25000    1.000
    N2       N        0.84120    0.68240    0.25000    1.000
    In3      In       0.49728    0.24864    0.25000    1.000
    N3       N        0.31760    0.15880    0.25000    1.000
    In4      In       0.24864    0.75136    0.75000    1.000
    N4       N        0.15880    0.84120    0.75000    1.000
    In5      In       0.24864    0.49728    0.75000    1.000
    N5       N        0.15880    0.31760    0.75000    1.000
    In6      In       0.50272    0.75136    0.75000    1.000
    N6       N        0.68240    0.84120    0.75000    1.000
    O25      O        0.66667    0.33333    0.25000    1.000
    O26      O        0.33333    0.66667    0.75000    1.000
    C25      C        0.55670    0.11340    0.13780    1.000
    C26      C        0.52670    0.05340    0.06780    1.000
    C27      C        0.88660    0.44330    0.13780    1.000
    C28      C        0.94660    0.47330    0.06780    1.000
    C29      C        0.55670    0.44330    0.13780    1.000
    C30      C        0.52670    0.47330    0.06780    1.000
    C31      C        0.44330    0.88660    0.63780    1.000
    C32      C        0.47330    0.94660    0.56780    1.000
    C33      C        0.11340    0.55670    0.63780    1.000
    C34      C        0.05340    0.52670    0.56780    1.000
    C35      C        0.44330    0.55670    0.63780    1.000
    C36      C        0.47330    0.52670    0.56780    1.000
    C37      C        0.11340    0.55670    0.86220    1.000
    C38      C        0.05340    0.52670    0.93220    1.000
    C39      C        0.44330    0.88660    0.86220    1.000
    C40      C        0.47330    0.94660    0.93220    1.000
    C41      C        0.44330    0.55670    0.86220    1.000
    C42      C        0.47330    0.52670    0.93220    1.000
    C43      C        0.88660    0.44330    0.36220    1.000
    C44      C        0.94660    0.47330    0.43220    1.000
    C45      C        0.55670    0.11340    0.36220    1.000
    C46      C        0.52670    0.05340    0.43220    1.000
    C47      C        0.55670    0.44330    0.36220    1.000
    C48      C        0.52670    0.47330    0.43220    1.000
    C49      C        0.87480    0.12520    0.30700    1.000
    H25      H        0.86210    0.13790    0.35450    1.000
    N7       N        0.92790    0.07210    0.28930    1.000
    C50      C        0.87480    0.74960    0.30700    1.000
    H26      H        0.86210    0.72420    0.35450    1.000
    N8       N        0.92790    0.85580    0.28930    1.000
    C51      C        0.25040    0.12520    0.30700    1.000
    H27      H        0.27580    0.13790    0.35450    1.000
    N9       N        0.14420    0.07210    0.28930    1.000
    C52      C        0.12520    0.87480    0.80700    1.000
    H28      H        0.13790    0.86210    0.85450    1.000
    N10      N        0.07210    0.92790    0.78930    1.000
    C53      C        0.12520    0.25040    0.80700    1.000
    H29      H        0.13790    0.27580    0.85450    1.000
    N11      N        0.07210    0.14420    0.78930    1.000
    C54      C        0.74960    0.87480    0.80700    1.000
    H30      H        0.72420    0.86210    0.85450    1.000
    N12      N        0.85580    0.92790    0.78930    1.000
    C55      C        0.12520    0.87480    0.69300    1.000
    H31      H        0.13790    0.86210    0.64550    1.000
    N13      N        0.07210    0.92790    0.71070    1.000
    C56      C        0.74960    0.87480    0.69300    1.000
    H32      H        0.72420    0.86210    0.64550    1.000
    N14      N        0.85580    0.92790    0.71070    1.000
    C57      C        0.12520    0.25040    0.69300    1.000
    H33      H        0.13790    0.27580    0.64550    1.000
    N15      N        0.07210    0.14420    0.71070    1.000
    C58      C        0.87480    0.12520    0.19300    1.000
    H34      H        0.86210    0.13790    0.14550    1.000
    N16      N        0.92790    0.07210    0.21070    1.000
    C59      C        0.25040    0.12520    0.19300    1.000
    H35      H        0.27580    0.13790    0.14550    1.000
    N17      N        0.14420    0.07210    0.21070    1.000
    C60      C        0.87480    0.74960    0.19300    1.000
    H36      H        0.86210    0.72420    0.14550    1.000
    N18      N        0.92790    0.85580    0.21070    1.000
    Ni1      Ni       0.00000    0.00000    0.36051    1.000
    Ni2      Ni       0.00000    0.00000    0.86051    1.000
    Ni3      Ni       0.00000    0.00000    0.63949    1.000
    Ni4      Ni       0.00000    0.00000    0.13949    1.000
