# CIF file generated by openbabel 3.1.0, see https://openbabel.org
data_I
_chemical_name_common 'image0'
_cell_length_a 9.0838
_cell_length_b 9.6157
_cell_length_c 12.4252
_cell_angle_alpha 93.488
_cell_angle_beta 104.357
_cell_angle_gamma 113.993
_space_group_name_H-M_alt 'P 1'
_space_group_name_Hall 'P 1'
loop_
    _symmetry_equiv_pos_as_xyz
    x,y,z
loop_
    _atom_site_label
    _atom_site_type_symbol
    _atom_site_fract_x
    _atom_site_fract_y
    _atom_site_fract_z
    _atom_site_occupancy
    C1       C        0.66850    0.34650    0.05970    1.000
    C2       C        0.29580    0.14950    0.02510    1.000
    C3       C        0.17390    0.14860    0.22080    1.000
    C4       C        0.73260    0.18460    0.24420    1.000
    C5       C        0.64440    0.28420    0.25790    1.000
    H1       H        0.71940    0.37010    0.32110    1.000
    C6       C        0.58750    0.35480    0.15250    1.000
    H2       H        0.63110    0.46550    0.18150    1.000
    C7       C        0.39150    0.29060    0.11950    1.000
    H3       H        0.35890    0.37280    0.09820    1.000
    C8       C        0.35500    0.25060    0.23280    1.000
    H4       H        0.38530    0.34860    0.28100    1.000
    C9       C        0.48130    0.18880    0.28850    1.000
    H5       H        0.43850    0.07940    0.25940    1.000
    H6       H        0.50250    0.20360    0.36980    1.000
    C10      C        0.86660    0.83070    0.39790    1.000
    H7       H        0.98310    0.88440    0.41390    1.000
    C11      C        0.80540    0.73250    0.46700    1.000
    H8       H        0.87870    0.72130    0.52920    1.000
    C12      C        0.63330    0.64980    0.44350    1.000
    C13      C        0.52740    0.67120    0.35130    1.000
    H9       H        0.41070    0.61690    0.33370    1.000
    C14      C        0.59910    0.77480    0.28630    1.000
    H10      H        0.52830    0.79050    0.22520    1.000
    N1       N        0.57600    0.54490    0.51740    1.000
    Co1      Co       0.86686    0.00499    0.20410    1.000
    N2       N        0.76830    0.85470    0.30750    1.000
    O1       O        0.60200    0.23030    0.98240    1.000
    O2       O        0.80580    0.46060    0.07150    1.000
    O3       O        0.30620    0.02640    0.04390    1.000
    O4       O        0.21040    0.16410    0.93230    1.000
    O5       O        0.06020    0.17450    0.15550    1.000
    O6       O        0.13170    0.04180    0.27650    1.000
    O7       O        0.66270    0.06620    0.16430    1.000
    O8       O        0.87090    0.21190    0.30930    1.000
    C15      C        0.33150    0.65350    0.94030    1.000
    C16      C        0.70420    0.85050    0.97490    1.000
    C17      C        0.82610    0.85140    0.77920    1.000
    C18      C        0.26740    0.81540    0.75580    1.000
    C19      C        0.35560    0.71580    0.74210    1.000
    H11      H        0.28060    0.62990    0.67890    1.000
    C20      C        0.41250    0.64520    0.84750    1.000
    H12      H        0.36890    0.53450    0.81850    1.000
    C21      C        0.60850    0.70940    0.88050    1.000
    H13      H        0.64110    0.62720    0.90180    1.000
    C22      C        0.64500    0.74940    0.76720    1.000
    H14      H        0.61470    0.65140    0.71900    1.000
    C23      C        0.51870    0.81120    0.71150    1.000
    H15      H        0.56150    0.92060    0.74060    1.000
    H16      H        0.49750    0.79640    0.63020    1.000
    C24      C        0.13340    0.16930    0.60210    1.000
    H17      H        0.01690    0.11560    0.58610    1.000
    C25      C        0.19460    0.26750    0.53300    1.000
    H18      H        0.12130    0.27870    0.47080    1.000
    C26      C        0.36670    0.35020    0.55650    1.000
    C27      C        0.47260    0.32880    0.64870    1.000
    H19      H        0.58930    0.38310    0.66630    1.000
    C28      C        0.40090    0.22520    0.71370    1.000
    H20      H        0.47170    0.20950    0.77480    1.000
    N3       N        0.42400    0.45510    0.48260    1.000
    Co2      Co       0.13314    0.99501    0.79590    1.000
    N4       N        0.23170    0.14530    0.69250    1.000
    O9       O        0.39800    0.76970    0.01760    1.000
    O10      O        0.19420    0.53940    0.92850    1.000
    O11      O        0.69380    0.97360    0.95610    1.000
    O12      O        0.78960    0.83590    0.06770    1.000
    O13      O        0.93980    0.82550    0.84450    1.000
    O14      O        0.86830    0.95820    0.72350    1.000
    O15      O        0.33730    0.93380    0.83570    1.000
    O16      O        0.12910    0.78810    0.69070    1.000
    Co3      Co       0.50000    0.00000    0.00000    1.000
    Co4      Co       0.00000    0.50000    0.00000    1.000
