# CIF file generated by openbabel 3.1.0, see https://openbabel.org
data_I
_chemical_name_common 'LAJDUV03_charged'
_cell_length_a 8.947
_cell_length_b 8.947
_cell_length_c 10.898
_cell_angle_alpha 90
_cell_angle_beta 90
_cell_angle_gamma 120
_space_group_name_H-M_alt 'P 1'
_space_group_name_Hall 'P 1'
loop_
    _symmetry_equiv_pos_as_xyz
    x,y,z
loop_
    _atom_site_label
    _atom_site_type_symbol
    _atom_site_fract_x
    _atom_site_fract_y
    _atom_site_fract_z
    _atom_site_occupancy
    Ti1      Ti       0.00000    0.50000    0.16667    1.000
    Ti2      Ti       0.50000    0.00000    0.83333    1.000
    Ti3      Ti       0.50000    0.50000    0.50000    1.000
    C1       C        0.30847    0.61694    0.33333    1.000
    C2       C        0.21052    0.42104    0.33333    1.000
    C3       C        0.30847    0.69153    0.00000    1.000
    C4       C        0.21052    0.78948    0.00000    1.000
    C5       C        0.38306    0.69153    0.66667    1.000
    C6       C        0.57896    0.78948    0.66667    1.000
    C7       C        0.69153    0.38306    0.33333    1.000
    C8       C        0.78948    0.57896    0.33333    1.000
    C9       C        0.69153    0.30847    0.00000    1.000
    C10      C        0.78948    0.21052    0.00000    1.000
    C11      C        0.61694    0.30847    0.66667    1.000
    C12      C        0.42104    0.21052    0.66667    1.000
    O1       O        0.23710    0.68600    0.27629    1.000
    O2       O        0.07610    0.34850    0.26999    1.000
    O3       O        0.44890    0.76290    0.94296    1.000
    O4       O        0.27240    0.92390    0.93666    1.000
    O5       O        0.31400    0.55110    0.60962    1.000
    O6       O        0.65150    0.72760    0.60332    1.000
    O7       O        0.76290    0.31400    0.27629    1.000
    O8       O        0.92390    0.65150    0.26999    1.000
    O9       O        0.55110    0.23710    0.94296    1.000
    O10      O        0.72760    0.07610    0.93666    1.000
    O11      O        0.68600    0.44890    0.60962    1.000
    O12      O        0.34850    0.27240    0.60332    1.000
    O13      O        0.55110    0.31400    0.39038    1.000
    O14      O        0.72760    0.65150    0.39668    1.000
    O15      O        0.68600    0.23710    0.72371    1.000
    O16      O        0.34850    0.07610    0.73001    1.000
    O17      O        0.76290    0.44890    0.05704    1.000
    O18      O        0.92390    0.27240    0.06334    1.000
    O19      O        0.44890    0.68600    0.39038    1.000
    O20      O        0.27240    0.34850    0.39668    1.000
    O21      O        0.31400    0.76290    0.72371    1.000
    O22      O        0.65150    0.92390    0.73001    1.000
    O23      O        0.23710    0.55110    0.05704    1.000
    O24      O        0.07610    0.72760    0.06334    1.000
    H1       H        0.89529    0.91030    0.88284    1.000
    H2       H        0.10471    0.08970    0.88284    1.000
    H3       H        0.98499    0.08970    0.78383    1.000
    H4       H        0.01501    0.91030    0.78383    1.000
    N1       N        0.00000    0.00000    0.83333    1.000
    H5       H        0.01501    0.10471    0.54951    1.000
    H6       H        0.98499    0.89529    0.54951    1.000
    H7       H        0.10471    0.01501    0.45049    1.000
    H8       H        0.89529    0.98499    0.45049    1.000
    N2       N        0.00000    0.00000    0.50000    1.000
    H9       H        0.08970    0.98499    0.21617    1.000
    H10      H        0.91030    0.01501    0.21617    1.000
    H11      H        0.91030    0.89529    0.11716    1.000
    H12      H        0.08970    0.10471    0.11716    1.000
    N3       N        0.00000    0.00000    0.16667    1.000
