# CIF file generated by openbabel 3.1.0, see https://openbabel.org
data_I
_chemical_name_common 'image0'
_cell_length_a 9.663
_cell_length_b 9.663
_cell_length_c 20.224
_cell_angle_alpha 90
_cell_angle_beta 90
_cell_angle_gamma 120
_space_group_name_H-M_alt 'P 1'
_space_group_name_Hall 'P 1'
loop_
    _symmetry_equiv_pos_as_xyz
    x,y,z
loop_
    _atom_site_label
    _atom_site_type_symbol
    _atom_site_fract_x
    _atom_site_fract_y
    _atom_site_fract_z
    _atom_site_occupancy
    Zn1      Zn       0.93547    0.50641    0.41623    1.000
    N1       N        0.34800    0.83030    0.51356    1.000
    N2       N        0.40840    0.81230    0.45320    1.000
    N3       N        0.14190    0.68310    0.44900    1.000
    N4       N        0.08670    0.74590    0.55670    1.000
    H1       H        0.98770    0.65190    0.56240    1.000
    H2       H        0.11910    0.78900    0.59790    1.000
    N5       N        0.21650    0.42000    0.28900    1.000
    N6       N        0.03010    0.42630    0.35050    1.000
    N7       N        0.96060    0.27420    0.32250    1.000
    N8       N        0.05950    0.15020    0.25060    1.000
    H3       H        0.95510    0.07660    0.23410    1.000
    H4       H        0.11670    0.16490    0.21260    1.000
    C1       C        0.19000    0.75160    0.50900    1.000
    C2       C        0.28240    0.72470    0.41750    1.000
    C3       C        0.29330    0.67930    0.34680    1.000
    H5       H        0.27360    0.74840    0.31670    1.000
    H6       H        0.40350    0.70120    0.33860    1.000
    C4       C        0.17990    0.50980    0.33010    1.000
    C5       C        0.07670    0.27900    0.28640    1.000
    Zn2      Zn       0.49359    0.42906    0.74956    1.000
    N9       N        0.16970    0.51770    0.84689    1.000
    N10      N        0.18770    0.59610    0.78653    1.000
    N11      N        0.31690    0.45880    0.78233    1.000
    N12      N        0.25410    0.34080    0.89003    1.000
    H7       H        0.34810    0.33580    0.89573    1.000
    H8       H        0.21100    0.33010    0.93123    1.000
    N13      N        0.58000    0.79650    0.62233    1.000
    N14      N        0.57370    0.60380    0.68383    1.000
    N15      N        0.72580    0.68640    0.65583    1.000
    N16      N        0.84980    0.90930    0.58393    1.000
    H9       H        0.92340    0.87850    0.56743    1.000
    H10      H        0.83510    0.95180    0.54593    1.000
    C6       C        0.24840    0.43840    0.84233    1.000
    C7       C        0.27530    0.55770    0.75083    1.000
    C8       C        0.32070    0.61400    0.68013    1.000
    H11      H        0.25160    0.52520    0.65003    1.000
    H12      H        0.29880    0.70230    0.67193    1.000
    C9       C        0.49020    0.67010    0.66343    1.000
    C10      C        0.72100    0.79770    0.61973    1.000
    Zn3      Zn       0.57094    0.06453    0.08290    1.000
    N17      N        0.48230    0.65200    0.18023    1.000
    N18      N        0.40390    0.59160    0.11987    1.000
    N19      N        0.54120    0.85810    0.11567    1.000
    N20      N        0.65920    0.91330    0.22337    1.000
    H13      H        0.66420    0.01230    0.22907    1.000
    H14      H        0.66990    0.88090    0.26457    1.000
    N21      N        0.20350    0.78350    0.95567    1.000
    N22      N        0.39620    0.96990    0.01717    1.000
    N23      N        0.31360    0.03940    0.98917    1.000
    N24      N        0.09070    0.94050    0.91727    1.000
    H15      H        0.12150    0.04490    0.90077    1.000
    H16      H        0.04820    0.88330    0.87927    1.000
    C11      C        0.56160    0.81000    0.17567    1.000
    C12      C        0.44230    0.71760    0.08417    1.000
    C13      C        0.38600    0.70670    0.01347    1.000
    H17      H        0.47480    0.72640    0.98337    1.000
    H18      H        0.29770    0.59650    0.00527    1.000
    C14      C        0.32990    0.82010    0.99677    1.000
    C15      C        0.20230    0.92330    0.95307    1.000
    Zn4      Zn       0.50641    0.93547    0.58377    1.000
    N25      N        0.83030    0.34800    0.48644    1.000
    N26      N        0.81230    0.40840    0.54680    1.000
    N27      N        0.68310    0.14190    0.55100    1.000
    N28      N        0.74590    0.08670    0.44330    1.000
    H19      H        0.65190    0.98770    0.43760    1.000
    H20      H        0.78900    0.11910    0.40210    1.000
    N29      N        0.42000    0.21650    0.71100    1.000
    N30      N        0.42630    0.03010    0.64950    1.000
    N31      N        0.27420    0.96060    0.67750    1.000
    N32      N        0.15020    0.05950    0.74940    1.000
    H21      H        0.07660    0.95510    0.76590    1.000
    H22      H        0.16490    0.11670    0.78740    1.000
    C16      C        0.75160    0.19000    0.49100    1.000
    C17      C        0.72470    0.28240    0.58250    1.000
    C18      C        0.67930    0.29330    0.65320    1.000
    H23      H        0.74840    0.27360    0.68330    1.000
    H24      H        0.70120    0.40350    0.66140    1.000
    C19      C        0.50980    0.17990    0.66990    1.000
    C20      C        0.27900    0.07670    0.71360    1.000
    Zn5      Zn       0.42906    0.49359    0.25044    1.000
    N33      N        0.51770    0.16970    0.15311    1.000
    N34      N        0.59610    0.18770    0.21347    1.000
    N35      N        0.45880    0.31690    0.21767    1.000
    N36      N        0.34080    0.25410    0.10997    1.000
    H25      H        0.33580    0.34810    0.10427    1.000
    H26      H        0.33010    0.21100    0.06877    1.000
    N37      N        0.79650    0.58000    0.37767    1.000
    N38      N        0.60380    0.57370    0.31617    1.000
    N39      N        0.68640    0.72580    0.34417    1.000
    N40      N        0.90930    0.84980    0.41607    1.000
    H27      H        0.87850    0.92340    0.43257    1.000
    H28      H        0.95180    0.83510    0.45407    1.000
    C21      C        0.43840    0.24840    0.15767    1.000
    C22      C        0.55770    0.27530    0.24917    1.000
    C23      C        0.61400    0.32070    0.31987    1.000
    H29      H        0.52520    0.25160    0.34997    1.000
    H30      H        0.70230    0.29880    0.32807    1.000
    C24      C        0.67010    0.49020    0.33657    1.000
    C25      C        0.79770    0.72100    0.38027    1.000
    Zn6      Zn       0.06453    0.57094    0.91710    1.000
    N41      N        0.65200    0.48230    0.81977    1.000
    N42      N        0.59160    0.40390    0.88013    1.000
    N43      N        0.85810    0.54120    0.88433    1.000
    N44      N        0.91330    0.65920    0.77663    1.000
    H31      H        0.01230    0.66420    0.77093    1.000
    H32      H        0.88090    0.66990    0.73543    1.000
    N45      N        0.78350    0.20350    0.04433    1.000
    N46      N        0.96990    0.39620    0.98283    1.000
    N47      N        0.03940    0.31360    0.01083    1.000
    N48      N        0.94050    0.09070    0.08273    1.000
    H33      H        0.04490    0.12150    0.09923    1.000
    H34      H        0.88330    0.04820    0.12073    1.000
    C26      C        0.81000    0.56160    0.82433    1.000
    C27      C        0.71760    0.44230    0.91583    1.000
    C28      C        0.70670    0.38600    0.98653    1.000
    H35      H        0.72640    0.47480    0.01663    1.000
    H36      H        0.59650    0.29770    0.99473    1.000
    C29      C        0.82010    0.32990    0.00323    1.000
    C30      C        0.92330    0.20230    0.04693    1.000
