# CIF file generated by openbabel 3.1.0, see https://openbabel.org
data_I
_chemical_name_common 'RUPZIM_clean'
_cell_length_a 7.6145
_cell_length_b 11.133
_cell_length_c 16.8688
_cell_angle_alpha 90
_cell_angle_beta 90
_cell_angle_gamma 90
_space_group_name_H-M_alt 'P 1'
_space_group_name_Hall 'P 1'
loop_
    _symmetry_equiv_pos_as_xyz
    x,y,z
loop_
    _atom_site_label
    _atom_site_type_symbol
    _atom_site_fract_x
    _atom_site_fract_y
    _atom_site_fract_z
    _atom_site_occupancy
    Zn1      Zn       0.89771    0.85908    0.03842    1.000
    Zn2      Zn       0.60229    0.14092    0.53842    1.000
    Zn3      Zn       0.10229    0.35908    0.46158    1.000
    Zn4      Zn       0.39771    0.64092    0.96158    1.000
    H1       H        0.78340    0.79480    0.78410    1.000
    H2       H        0.75510    0.60740    0.36790    1.000
    H3       H        0.98420    0.40080    0.15490    1.000
    H4       H        0.74070    0.82700    0.64950    1.000
    H5       H        0.98740    0.31460    0.28000    1.000
    H6       H        0.75460    0.69440    0.24270    1.000
    H7       H        0.98700    0.12400    0.80560    1.000
    H8       H        0.93900    0.17400    0.66900    1.000
    H9       H        0.71660    0.20520    0.28410    1.000
    H10      H        0.74490    0.39260    0.86790    1.000
    H11      H        0.51580    0.59920    0.65490    1.000
    H12      H        0.75930    0.17300    0.14950    1.000
    H13      H        0.51260    0.68540    0.78000    1.000
    H14      H        0.74540    0.30560    0.74270    1.000
    H15      H        0.51300    0.87600    0.30560    1.000
    H16      H        0.56100    0.82600    0.16900    1.000
    H17      H        0.21660    0.29480    0.71590    1.000
    H18      H        0.24490    0.10740    0.13210    1.000
    H19      H        0.01580    0.90080    0.34510    1.000
    H20      H        0.25930    0.32700    0.85050    1.000
    H21      H        0.01260    0.81460    0.22000    1.000
    H22      H        0.24540    0.19440    0.25730    1.000
    H23      H        0.01300    0.62400    0.69440    1.000
    H24      H        0.06100    0.67400    0.83100    1.000
    H25      H        0.28340    0.70520    0.21590    1.000
    H26      H        0.25510    0.89260    0.63210    1.000
    H27      H        0.48420    0.09920    0.84510    1.000
    H28      H        0.24070    0.67300    0.35050    1.000
    H29      H        0.48740    0.18540    0.72000    1.000
    H30      H        0.25460    0.80560    0.75730    1.000
    H31      H        0.48700    0.37600    0.19440    1.000
    H32      H        0.43900    0.32600    0.33100    1.000
    C1       C        0.91440    0.08500    0.69350    1.000
    C2       C        0.81570    0.86770    0.76160    1.000
    C3       C        0.88930    0.95500    0.80820    1.000
    C4       C        0.79960    0.56490    0.32480    1.000
    C5       C        0.86890    0.55630    0.18550    1.000
    C6       C        0.93740    0.44290    0.19760    1.000
    C7       C        0.78890    0.88700    0.68100    1.000
    C8       C        0.86460    0.45020    0.33580    1.000
    C9       C        0.91280    0.93390    0.89350    1.000
    C10      C        0.93780    0.39010    0.27270    1.000
    C11      C        0.80040    0.61770    0.24960    1.000
    C12      C        0.83520    0.99770    0.64830    1.000
    C13      C        0.93800    0.06430    0.77400    1.000
    C14      C        0.87270    0.61610    0.10550    1.000
    C15      C        0.58560    0.91500    0.19350    1.000
    C16      C        0.68430    0.13230    0.26160    1.000
    C17      C        0.61070    0.04500    0.30820    1.000
    C18      C        0.70040    0.43510    0.82480    1.000
    C19      C        0.63110    0.44370    0.68550    1.000
    C20      C        0.56260    0.55710    0.69760    1.000
    C21      C        0.71110    0.11300    0.18100    1.000
    C22      C        0.63540    0.54980    0.83580    1.000
    C23      C        0.58720    0.06610    0.39350    1.000
    C24      C        0.56220    0.60990    0.77270    1.000
    C25      C        0.69960    0.38230    0.74960    1.000
    C26      C        0.66480    0.00230    0.14830    1.000
    C27      C        0.56200    0.93570    0.27400    1.000
    C28      C        0.62730    0.38390    0.60550    1.000
    C29      C        0.08560    0.58500    0.80650    1.000
    C30      C        0.18430    0.36770    0.73840    1.000
    C31      C        0.11070    0.45500    0.69180    1.000
    C32      C        0.20040    0.06490    0.17520    1.000
    C33      C        0.13110    0.05630    0.31450    1.000
    C34      C        0.06260    0.94290    0.30240    1.000
    C35      C        0.21110    0.38700    0.81900    1.000
    C36      C        0.13540    0.95020    0.16420    1.000
    C37      C        0.08720    0.43390    0.60650    1.000
    C38      C        0.06220    0.89010    0.22730    1.000
    C39      C        0.19960    0.11770    0.25040    1.000
    C40      C        0.16480    0.49770    0.85170    1.000
    C41      C        0.06200    0.56430    0.72600    1.000
    C42      C        0.12730    0.11610    0.39450    1.000
    C43      C        0.41440    0.41500    0.30650    1.000
    C44      C        0.31570    0.63230    0.23840    1.000
    C45      C        0.38930    0.54500    0.19180    1.000
    C46      C        0.29960    0.93510    0.67520    1.000
    C47      C        0.36890    0.94370    0.81450    1.000
    C48      C        0.43740    0.05710    0.80240    1.000
    C49      C        0.28890    0.61300    0.31900    1.000
    C50      C        0.36460    0.04980    0.66420    1.000
    C51      C        0.41280    0.56610    0.10650    1.000
    C52      C        0.43780    0.10990    0.72730    1.000
    C53      C        0.30040    0.88230    0.75040    1.000
    C54      C        0.33520    0.50230    0.35170    1.000
    C55      C        0.43800    0.43570    0.22600    1.000
    C56      C        0.37270    0.88390    0.89450    1.000
    N1       N        0.80120    0.01940    0.56440    1.000
    N2       N        0.85640    0.39170    0.41260    1.000
    N3       N        0.69880    0.98060    0.06440    1.000
    N4       N        0.64360    0.60830    0.91260    1.000
    N5       N        0.19880    0.51940    0.93560    1.000
    N6       N        0.14360    0.89170    0.08740    1.000
    N7       N        0.30120    0.48060    0.43560    1.000
    N8       N        0.35640    0.10830    0.58740    1.000
    O1       O        0.86640    0.83220    0.92330    1.000
    O2       O        0.97720    0.01350    0.93810    1.000
    O3       O        0.82270    0.72310    0.10210    1.000
    O4       O        0.91750    0.55540    0.04640    1.000
    O5       O        0.63360    0.16780    0.42330    1.000
    O6       O        0.52280    0.98650    0.43810    1.000
    O7       O        0.67730    0.27690    0.60210    1.000
    O8       O        0.58250    0.44460    0.54640    1.000
    O9       O        0.13360    0.33220    0.57670    1.000
    O10      O        0.02280    0.51350    0.56190    1.000
    O11      O        0.17730    0.22310    0.39790    1.000
    O12      O        0.08250    0.05540    0.45360    1.000
    O13      O        0.36640    0.66780    0.07670    1.000
    O14      O        0.47720    0.48650    0.06190    1.000
    O15      O        0.32270    0.77690    0.89790    1.000
    O16      O        0.41750    0.94460    0.95360    1.000
