# CIF file generated by openbabel 3.1.0, see https://openbabel.org
data_I
_chemical_name_common 'GAWLIB_clean'
_cell_length_a 8.136
_cell_length_b 21.3945
_cell_length_c 22.8798
_cell_angle_alpha 82.374
_cell_angle_beta 82.746
_cell_angle_gamma 79.437
_space_group_name_H-M_alt 'P 1'
_space_group_name_Hall 'P 1'
loop_
    _symmetry_equiv_pos_as_xyz
    x,y,z
loop_
    _atom_site_label
    _atom_site_type_symbol
    _atom_site_fract_x
    _atom_site_fract_y
    _atom_site_fract_z
    _atom_site_occupancy
    Tb1      Tb       0.73836    0.09431    0.53520    1.000
    Tb2      Tb       0.96626    0.24779    0.59615    1.000
    Tb3      Tb       0.70057    0.57590    0.21622    1.000
    Tb4      Tb       0.11363    0.52830    0.06760    1.000
    Tb5      Tb       0.26164    0.90569    0.46480    1.000
    Tb6      Tb       0.03374    0.75221    0.40385    1.000
    Tb7      Tb       0.29943    0.42410    0.78378    1.000
    Tb8      Tb       0.88637    0.47170    0.93240    1.000
    H1       H        0.09400    0.22990    0.37490    1.000
    H2       H        0.73060    0.25360    0.26740    1.000
    H3       H        0.53120    0.25520    0.34860    1.000
    H4       H        0.94140    0.35460    0.24670    1.000
    H5       H        0.97450    0.28620    0.06260    1.000
    H6       H        0.05300    0.21360    0.14110    1.000
    H7       H        0.84210    0.91020    0.28370    1.000
    H8       H        0.58790    0.08700    0.24630    1.000
    H9       H        0.65290    0.11440    0.33380    1.000
    H10      H        0.46460    0.92580    0.28650    1.000
    H11      H        0.72260    0.75480    0.18670    1.000
    H12      H        0.77510    0.85690    0.15130    1.000
    H13      H        0.84320    0.28230    0.92980    1.000
    H14      H        0.74330    0.13810    0.85150    1.000
    H15      H        0.83600    0.18590    0.76220    1.000
    H16      H        0.48530    0.27100    0.91660    1.000
    H17      H        0.48340    0.30960    0.10970    1.000
    H18      H        0.64420    0.21790    0.07730    1.000
    H19      H        0.90600    0.77010    0.62510    1.000
    H20      H        0.26940    0.74640    0.73260    1.000
    H21      H        0.46880    0.74480    0.65140    1.000
    H22      H        0.05860    0.64540    0.75330    1.000
    H23      H        0.02550    0.71380    0.93740    1.000
    H24      H        0.94700    0.78640    0.85890    1.000
    H25      H        0.15790    0.08980    0.71630    1.000
    H26      H        0.41210    0.91300    0.75370    1.000
    H27      H        0.34710    0.88560    0.66620    1.000
    H28      H        0.53540    0.07420    0.71350    1.000
    H29      H        0.27740    0.24520    0.81330    1.000
    H30      H        0.22490    0.14310    0.84870    1.000
    H31      H        0.15680    0.71770    0.07020    1.000
    H32      H        0.25670    0.86190    0.14850    1.000
    H33      H        0.16400    0.81410    0.23780    1.000
    H34      H        0.51470    0.72900    0.08340    1.000
    H35      H        0.51660    0.69040    0.89030    1.000
    H36      H        0.35580    0.78210    0.92270    1.000
    C1       C        0.55910    0.22950    0.46240    1.000
    C2       C        0.69230    0.23780    0.41150    1.000
    C3       C        0.86120    0.23290    0.41830    1.000
    C4       C        0.98110    0.23370    0.36940    1.000
    C5       C        0.93320    0.24000    0.31240    1.000
    C6       C        0.76440    0.24810    0.30530    1.000
    C7       C        0.64460    0.24820    0.35410    1.000
    C8       C        0.91740    0.22730    0.47950    1.000
    C9       C        0.06530    0.23170    0.25710    1.000
    C10      C        0.00590    0.27600    0.20260    1.000
    C11      C        0.94960    0.34110    0.20930    1.000
    C12      C        0.90590    0.38550    0.16180    1.000
    C13      C        0.91520    0.36500    0.10480    1.000
    C14      C        0.96930    0.30040    0.09960    1.000
    C15      C        0.01550    0.25640    0.14670    1.000
    C16      C        0.84420    0.45350    0.17390    1.000
    C17      C        0.88240    0.40780    0.05050    1.000
    C18      C        0.24080    0.24440    0.26560    1.000
    C19      C        0.07900    0.15980    0.24580    1.000
    C20      C        0.78220    0.04620    0.42450    1.000
    C21      C        0.77890    0.02820    0.36390    1.000
    C22      C        0.84090    0.96730    0.34740    1.000
    C23      C        0.80260    0.95130    0.29410    1.000
    C24      C        0.70800    0.99470    0.25650    1.000
    C25      C        0.65070    0.05680    0.27150    1.000
    C26      C        0.68860    0.07270    0.32430    1.000
    C27      C        0.92990    0.91570    0.38910    1.000
    C28      C        0.66540    0.97130    0.20040    1.000
    C29      C        0.62710    0.90240    0.21660    1.000
    C30      C        0.51840    0.89120    0.26660    1.000
    C31      C        0.48630    0.83110    0.28840    1.000
    C32      C        0.57030    0.77840    0.25950    1.000
    C33      C        0.67310    0.78910    0.20760    1.000
    C34      C        0.70390    0.85050    0.18590    1.000
    C35      C        0.35570    0.82610    0.34040    1.000
    C36      C        0.57140    0.70980    0.28820    1.000
    C37      C        0.81850    0.97640    0.15330    1.000
    C38      C        0.50830    0.01230    0.17480    1.000
    C39      C        0.92740    0.30100    0.72880    1.000
    C40      C        0.89290    0.26430    0.78950    1.000
    C41      C        0.89480    0.29320    0.84190    1.000
    C42      C        0.83950    0.26360    0.89570    1.000
    C43      C        0.77760    0.20610    0.90100    1.000
    C44      C        0.78010    0.17720    0.84920    1.000
    C45      C        0.83580    0.20590    0.79590    1.000
    C46      C        0.96480    0.35380    0.84030    1.000
    C47      C        0.70390    0.18010    0.96400    1.000
    C48      C        0.59050    0.23640    0.99170    1.000
    C49      C        0.48830    0.27940    0.95530    1.000
    C50      C        0.39090    0.33410    0.97440    1.000
    C51      C        0.39630    0.34750    0.03200    1.000
    C52      C        0.48730    0.30250    0.07030    1.000
    C53      C        0.58390    0.24750    0.05100    1.000
    C54      C        0.28320    0.37850    0.93080    1.000
    C55      C        0.32010    0.41240    0.04990    1.000
    C56      C        0.85730    0.15210    0.99830    1.000
    C57      C        0.60040    0.12770    0.96280    1.000
    C58      C        0.44090    0.77050    0.53760    1.000
    C59      C        0.30770    0.76220    0.58850    1.000
    C60      C        0.13880    0.76710    0.58170    1.000
    C61      C        0.01890    0.76630    0.63060    1.000
    C62      C        0.06680    0.76000    0.68760    1.000
    C63      C        0.23560    0.75190    0.69470    1.000
    C64      C        0.35540    0.75180    0.64590    1.000
    C65      C        0.08260    0.77270    0.52050    1.000
    C66      C        0.93470    0.76830    0.74290    1.000
    C67      C        0.99410    0.72400    0.79740    1.000
    C68      C        0.05040    0.65890    0.79070    1.000
    C69      C        0.09410    0.61450    0.83820    1.000
    C70      C        0.08480    0.63500    0.89520    1.000
    C71      C        0.03070    0.69960    0.90040    1.000
    C72      C        0.98450    0.74360    0.85330    1.000
    C73      C        0.15580    0.54650    0.82610    1.000
    C74      C        0.11760    0.59220    0.94950    1.000
    C75      C        0.75920    0.75560    0.73440    1.000
    C76      C        0.92100    0.84020    0.75420    1.000
    C77      C        0.21780    0.95380    0.57550    1.000
    C78      C        0.22110    0.97180    0.63610    1.000
    C79      C        0.15910    0.03270    0.65260    1.000
    C80      C        0.19740    0.04870    0.70590    1.000
    C81      C        0.29200    0.00530    0.74350    1.000
    C82      C        0.34930    0.94320    0.72850    1.000
    C83      C        0.31140    0.92730    0.67570    1.000
    C84      C        0.07010    0.08430    0.61090    1.000
    C85      C        0.33460    0.02870    0.79960    1.000
    C86      C        0.37290    0.09760    0.78340    1.000
    C87      C        0.48160    0.10880    0.73340    1.000
    C88      C        0.51370    0.16890    0.71160    1.000
    C89      C        0.42970    0.22160    0.74050    1.000
    C90      C        0.32690    0.21090    0.79240    1.000
    C91      C        0.29610    0.14950    0.81410    1.000
    C92      C        0.64430    0.17390    0.65960    1.000
    C93      C        0.42860    0.29020    0.71180    1.000
    C94      C        0.18150    0.02360    0.84670    1.000
    C95      C        0.49170    0.98770    0.82520    1.000
    C96      C        0.07260    0.69900    0.27120    1.000
    C97      C        0.10710    0.73570    0.21050    1.000
    C98      C        0.10520    0.70680    0.15810    1.000
    C99      C        0.16050    0.73640    0.10430    1.000
    C100     C        0.22240    0.79390    0.09900    1.000
    C101     C        0.21990    0.82280    0.15080    1.000
    C102     C        0.16420    0.79410    0.20410    1.000
    C103     C        0.03520    0.64620    0.15970    1.000
    C104     C        0.29610    0.81990    0.03600    1.000
    C105     C        0.40950    0.76360    0.00830    1.000
    C106     C        0.51170    0.72060    0.04470    1.000
    C107     C        0.60910    0.66590    0.02560    1.000
    C108     C        0.60370    0.65250    0.96800    1.000
    C109     C        0.51270    0.69750    0.92970    1.000
    C110     C        0.41610    0.75250    0.94900    1.000
    C111     C        0.71680    0.62150    0.06920    1.000
    C112     C        0.67990    0.58760    0.95010    1.000
    C113     C        0.14270    0.84790    0.00170    1.000
    C114     C        0.39960    0.87230    0.03720    1.000
    O1       O        0.55230    0.17240    0.48560    1.000
    O2       O        0.45570    0.27600    0.47660    1.000
    O3       O        0.85240    0.19420    0.52130    1.000
    O4       O        0.02250    0.26060    0.48790    1.000
    O5       O        0.70530    0.46560    0.20430    1.000
    O6       O        0.93120    0.49770    0.15760    1.000
    O7       O        0.93520    0.46110    0.04160    1.000
    O8       O        0.80820    0.39190    0.01110    1.000
    O9       O        0.88510    0.07950    0.43600    1.000
    O10      O        0.66650    0.03100    0.46300    1.000
    O11      O        0.99440    0.93360    0.43070    1.000
    O12      O        0.93380    0.85980    0.38080    1.000
    O13      O        0.34570    0.86610    0.37700    1.000
    O14      O        0.26260    0.78600    0.34330    1.000
    O15      O        0.57860    0.69890    0.34320    1.000
    O16      O        0.57080    0.66790    0.25460    1.000
    O17      O        0.00080    0.26870    0.68780    1.000
    O18      O        0.87320    0.35960    0.72200    1.000
    O19      O        0.10820    0.35550    0.81420    1.000
    O20      O        0.87690    0.39720    0.86800    1.000
    O21      O        0.35910    0.39190    0.87960    1.000
    O22      O        0.13260    0.39610    0.94690    1.000
    O23      O        0.32830    0.45920    0.01070    1.000
    O24      O        0.25370    0.41890    0.10200    1.000
    O25      O        0.44770    0.82760    0.51440    1.000
    O26      O        0.54430    0.72400    0.52340    1.000
    O27      O        0.14760    0.80580    0.47870    1.000
    O28      O        0.97750    0.73940    0.51210    1.000
    O29      O        0.29470    0.53440    0.79570    1.000
    O30      O        0.06880    0.50230    0.84240    1.000
    O31      O        0.06480    0.53890    0.95840    1.000
    O32      O        0.19180    0.60810    0.98890    1.000
    O33      O        0.11490    0.92050    0.56400    1.000
    O34      O        0.33350    0.96900    0.53700    1.000
    O35      O        0.00560    0.06640    0.56930    1.000
    O36      O        0.06620    0.14020    0.61920    1.000
    O37      O        0.65430    0.13390    0.62300    1.000
    O38      O        0.73740    0.21400    0.65670    1.000
    O39      O        0.42140    0.30110    0.65680    1.000
    O40      O        0.42920    0.33210    0.74540    1.000
    O41      O        0.99920    0.73130    0.31220    1.000
    O42      O        0.12680    0.64040    0.27800    1.000
    O43      O        0.89180    0.64450    0.18580    1.000
    O44      O        0.12310    0.60280    0.13200    1.000
    O45      O        0.64090    0.60810    0.12040    1.000
    O46      O        0.86740    0.60390    0.05310    1.000
    O47      O        0.67170    0.54080    0.98930    1.000
    O48      O        0.74630    0.58110    0.89800    1.000
    F1       F        0.32040    0.19800    0.30300    1.000
    F2       F        0.33620    0.24770    0.21520    1.000
    F3       F        0.22860    0.29860    0.28870    1.000
    F4       F        0.10610    0.12120    0.29660    1.000
    F5       F        0.20900    0.14270    0.20620    1.000
    F6       F        0.94090    0.14800    0.22800    1.000
    F7       F        0.95370    0.93470    0.16970    1.000
    F8       F        0.86170    0.03400    0.14860    1.000
    F9       F        0.79360    0.96560    0.09980    1.000
    F10      F        0.45900    0.98420    0.13260    1.000
    F11      F        0.53190    0.07080    0.15100    1.000
    F12      F        0.38040    0.01920    0.21660    1.000
    F13      F        0.97060    0.11160    0.96760    1.000
    F14      F        0.81700    0.12110    0.05020    1.000
    F15      F        0.93840    0.19700    0.00960    1.000
    F16      F        0.52100    0.11290    0.01630    1.000
    F17      F        0.69350    0.07280    0.94610    1.000
    F18      F        0.48020    0.14600    0.92650    1.000
    F19      F        0.67960    0.80200    0.69700    1.000
    F20      F        0.66380    0.75230    0.78480    1.000
    F21      F        0.77140    0.70140    0.71130    1.000
    F22      F        0.89390    0.87880    0.70340    1.000
    F23      F        0.79100    0.85730    0.79380    1.000
    F24      F        0.05910    0.85200    0.77200    1.000
    F25      F        0.04630    0.06530    0.83030    1.000
    F26      F        0.13830    0.96600    0.85140    1.000
    F27      F        0.20640    0.03440    0.90020    1.000
    F28      F        0.54100    0.01580    0.86740    1.000
    F29      F        0.46810    0.92920    0.84900    1.000
    F30      F        0.61960    0.98080    0.78340    1.000
    F31      F        0.02940    0.88840    0.03240    1.000
    F32      F        0.18300    0.87890    0.94980    1.000
    F33      F        0.06160    0.80300    0.99040    1.000
    F34      F        0.47900    0.88710    0.98370    1.000
    F35      F        0.30650    0.92720    0.05390    1.000
    F36      F        0.51980    0.85400    0.07350    1.000
