# CIF file generated by openbabel 3.1.0, see https://openbabel.org
data_I
_chemical_name_common 'HAZGOF04_clean_h'
_cell_length_a 8.7421
_cell_length_b 11.2534
_cell_length_c 17.7222
_cell_angle_alpha 84.5027
_cell_angle_beta 75.7212
_cell_angle_gamma 67.1438
_space_group_name_H-M_alt 'P 1'
_space_group_name_Hall 'P 1'
loop_
    _symmetry_equiv_pos_as_xyz
    x,y,z
loop_
    _atom_site_label
    _atom_site_type_symbol
    _atom_site_fract_x
    _atom_site_fract_y
    _atom_site_fract_z
    _atom_site_occupancy
    Sc1      Sc       0.88569    0.75000    0.72862    1.000
    Sc2      Sc       0.36431    0.75000    0.77138    1.000
    Sc3      Sc       0.11431    0.25000    0.27138    1.000
    Sc4      Sc       0.63569    0.25000    0.22862    1.000
    C1       C        0.69816    0.31906    0.75042    1.000
    C2       C        0.26114    0.63988    0.63244    1.000
    C3       C        0.39454    0.56250    0.56142    1.000
    C4       C        0.31755    0.53112    0.50898    1.000
    C5       C        0.56252    0.53954    0.55602    1.000
    C6       C        0.05142    0.18094    0.75042    1.000
    C7       C        0.60642    0.86012    0.63244    1.000
    C8       C        0.54404    0.93750    0.56142    1.000
    C9       C        0.67347    0.96888    0.50898    1.000
    C10      C        0.38146    0.96046    0.55602    1.000
    C11      C        0.98278    0.31906    0.74958    1.000
    C12      C        0.09898    0.63988    0.86756    1.000
    C13      C        0.04296    0.56250    0.93858    1.000
    C14      C        0.15133    0.53112    0.99102    1.000
    C15      C        0.89794    0.53954    0.94398    1.000
    C16      C        0.76764    0.18094    0.74958    1.000
    C17      C        0.53346    0.86012    0.86756    1.000
    C18      C        0.51846    0.93750    0.93858    1.000
    C19      C        0.35765    0.96888    0.99102    1.000
    C20      C        0.65808    0.96046    0.94398    1.000
    C21      C        0.30184    0.68094    0.24958    1.000
    C22      C        0.73886    0.36012    0.36756    1.000
    C23      C        0.60546    0.43750    0.43858    1.000
    C24      C        0.68245    0.46888    0.49102    1.000
    C25      C        0.43748    0.46046    0.44398    1.000
    C26      C        0.94858    0.81906    0.24958    1.000
    C27      C        0.39358    0.13988    0.36756    1.000
    C28      C        0.45596    0.06250    0.43858    1.000
    C29      C        0.32653    0.03112    0.49102    1.000
    C30      C        0.61854    0.03954    0.44398    1.000
    C31      C        0.01722    0.68094    0.25042    1.000
    C32      C        0.90102    0.36012    0.13244    1.000
    C33      C        0.95704    0.43750    0.06142    1.000
    C34      C        0.84867    0.46888    0.00898    1.000
    C35      C        0.10206    0.46046    0.05602    1.000
    C36      C        0.23236    0.81906    0.25042    1.000
    C37      C        0.46654    0.13988    0.13244    1.000
    C38      C        0.48154    0.06250    0.06142    1.000
    C39      C        0.64235    0.03112    0.00898    1.000
    C40      C        0.34192    0.03954    0.05602    1.000
    C41      C        0.73596    0.52808    0.75000    1.000
    C42      C        0.81034    0.37932    0.75000    1.000
    C43      C        0.01404    0.97192    0.75000    1.000
    C44      C        0.93966    0.12068    0.75000    1.000
    C45      C        0.26404    0.47192    0.25000    1.000
    C46      C        0.18966    0.62068    0.25000    1.000
    C47      C        0.98596    0.02808    0.25000    1.000
    C48      C        0.06034    0.87932    0.25000    1.000
    O1       O        0.83835    0.58420    0.72886    1.000
    O2       O        0.10769    0.66894    0.64060    1.000
    O3       O        0.31658    0.66966    0.68468    1.000
    O4       O        0.93279    0.91580    0.72886    1.000
    O5       O        0.75171    0.83106    0.64060    1.000
    O6       O        0.49874    0.83034    0.68468    1.000
    O7       O        0.57745    0.58420    0.77114    1.000
    O8       O        0.22337    0.66894    0.85940    1.000
    O9       O        0.01376    0.66966    0.81532    1.000
    O10      O        0.15141    0.91580    0.77114    1.000
    O11      O        0.41723    0.83106    0.85940    1.000
    O12      O        0.67092    0.83034    0.81532    1.000
    O13      O        0.16165    0.41580    0.27114    1.000
    O14      O        0.89231    0.33106    0.35940    1.000
    O15      O        0.68342    0.33034    0.31532    1.000
    O16      O        0.06721    0.08420    0.27114    1.000
    O17      O        0.24829    0.16894    0.35940    1.000
    O18      O        0.50126    0.16966    0.31532    1.000
    O19      O        0.42255    0.41580    0.22886    1.000
    O20      O        0.77663    0.33106    0.14060    1.000
    O21      O        0.98624    0.33034    0.18468    1.000
    O22      O        0.84859    0.08420    0.22886    1.000
    O23      O        0.58277    0.16894    0.14060    1.000
    O24      O        0.32908    0.16966    0.18468    1.000
    H1       H        0.55728    0.37401    0.75138    1.000
    H2       H        0.17298    0.56289    0.52180    1.000
    H3       H        0.60088    0.57709    0.60301    1.000
    H4       H        0.19134    0.12599    0.75138    1.000
    H5       H        0.80522    0.93711    0.52180    1.000
    H6       H        0.29612    0.92291    0.60301    1.000
    H7       H        0.06871    0.37401    0.74862    1.000
    H8       H        0.26413    0.56289    0.97820    1.000
    H9       H        0.82203    0.57709    0.89699    1.000
    H10      H        0.68267    0.12599    0.74862    1.000
    H11      H        0.25767    0.93711    0.97820    1.000
    H12      H        0.78097    0.92291    0.89699    1.000
    H13      H        0.44272    0.62599    0.24862    1.000
    H14      H        0.82437    0.44339    0.48542    1.000
    H15      H        0.39912    0.42291    0.39699    1.000
    H16      H        0.80866    0.87401    0.24862    1.000
    H17      H        0.19478    0.06289    0.47820    1.000
    H18      H        0.70388    0.07709    0.39699    1.000
    H19      H        0.93129    0.62599    0.25138    1.000
    H20      H        0.73225    0.44339    0.01458    1.000
    H21      H        0.18213    0.42488    0.10153    1.000
    H22      H        0.31733    0.87401    0.25138    1.000
    H23      H        0.75318    0.05661    0.01458    1.000
    H24      H        0.21634    0.07512    0.10153    1.000
