# CIF file generated by openbabel 3.1.0, see https://openbabel.org
data_I
_chemical_name_common 'image0'
_cell_length_a 10.107
_cell_length_b 18.338
_cell_length_c 27.084
_cell_angle_alpha 90
_cell_angle_beta 99.285
_cell_angle_gamma 90
_space_group_name_H-M_alt 'P 1'
_space_group_name_Hall 'P 1'
loop_
    _symmetry_equiv_pos_as_xyz
    x,y,z
loop_
    _atom_site_label
    _atom_site_type_symbol
    _atom_site_fract_x
    _atom_site_fract_y
    _atom_site_fract_z
    _atom_site_occupancy
    Zn1      Zn       0.46427    0.80393    0.30758    1.000
    Zn2      Zn       0.63667    0.73013    0.21918    1.000
    O1       O        0.64680    0.82958    0.33933    1.000
    O2       O        0.48350    0.69871    0.31377    1.000
    C1       C        0.88680    0.88177    0.38873    1.000
    H1       H        0.80880    0.89330    0.40110    1.000
    C2       C        0.87860    0.83738    0.34702    1.000
    O3       O        0.56640    0.64691    0.25119    1.000
    O4       O        0.74600    0.77277    0.28356    1.000
    C3       C        0.99460    0.81919    0.32940    1.000
    H2       H        0.99070    0.78900    0.30160    1.000
    C4       C        0.50990    0.44396    0.31553    1.000
    C5       C        0.74750    0.81040    0.32107    1.000
    C6       C        0.50160    0.50493    0.44826    1.000
    C7       C        0.52570    0.64519    0.29228    1.000
    C8       C        0.07400    0.93470    0.50403    1.000
    C9       C        0.00860    0.95720    0.45756    1.000
    O5       O        0.29280    0.78713    0.56520    1.000
    C10      C        0.11630    0.84550    0.35284    1.000
    C11      C        0.06460    0.97730    0.54769    1.000
    C12      C        0.50070    0.44277    0.36595    1.000
    H3       H        0.49050    0.39850    0.38160    1.000
    C13      C        0.00760    0.90950    0.41251    1.000
    C14      C        0.50650    0.50727    0.39349    1.000
    C15      C        0.52230    0.57361    0.31818    1.000
    C16      C        0.51300    0.57191    0.36805    1.000
    H4       H        0.51110    0.61570    0.38530    1.000
    C17      C        0.12340    0.89090    0.39433    1.000
    H5       H        0.20590    0.90880    0.40980    1.000
    C18      C        0.61310    0.47673    0.48071    1.000
    C19      C        0.52470    0.50925    0.29211    1.000
    H6       H        0.53620    0.51000    0.25870    1.000
    C20      C        0.38990    0.52919    0.46752    1.000
    C21      C        0.15050    0.86850    0.51082    1.000
    H7       H        0.15560    0.83920    0.48320    1.000
    C22      C        0.73360    0.45620    0.46289    1.000
    H8       H        0.73880    0.46230    0.42920    1.000
    O6       O        0.05990    0.61570    0.42883    1.000
    C23      C        0.20120    0.88870    0.59945    1.000
    C24      C        0.27560    0.56030    0.43582    1.000
    H9       H        0.27700    0.56560    0.40180    1.000
    C25      C        0.12920    0.95070    0.59530    1.000
    H10      H        0.12100    0.97690    0.62400    1.000
    C26      C        0.21500    0.84760    0.55590    1.000
    O7       O        0.95680    0.40830    0.48040    1.000
    C27      C        0.96880    0.42210    0.42870    1.000
    H11      H        0.90780    0.39120    0.40730    1.000
    H12      H        0.05890    0.41220    0.42370    1.000
    H13      H        0.94760    0.47220    0.42080    1.000
    C28      C        0.83870    0.42880    0.49328    1.000
    C29      C        0.30790    0.74350    0.52280    1.000
    H14      H        0.33800    0.77350    0.49780    1.000
    H15      H        0.22320    0.72180    0.50930    1.000
    H16      H        0.37250    0.70570    0.53280    1.000
    C30      C        0.16790    0.58170    0.45464    1.000
    O8       O        0.35330    0.84565    0.35613    1.000
    O9       O        0.23550    0.78669    0.29485    1.000
    O10      O        0.55180    0.37242    0.24843    1.000
    C31      C        0.24170    0.82410    0.33300    1.000
    O11      O        0.44230    0.32323    0.30357    1.000
    C32      C        0.06540    0.63940    0.37900    1.000
    H17      H        0.07470    0.59780    0.35830    1.000
    H18      H        0.14080    0.67130    0.37920    1.000
    H19      H        0.98440    0.66500    0.36610    1.000
    C33      C        0.50050    0.37380    0.28674    1.000
    O12      O        0.26630    0.86003    0.64279    1.000
    C34      C        0.24520    0.89530    0.68812    1.000
    H20      H        0.15080    0.90050    0.68820    1.000
    H21      H        0.28650    0.94260    0.69010    1.000
    H22      H        0.28430    0.86650    0.71630    1.000
    Zn3      Zn       0.53573    0.30393    0.19242    1.000
    Zn4      Zn       0.36333    0.23013    0.28082    1.000
    O13      O        0.35320    0.32958    0.16067    1.000
    O14      O        0.51650    0.19871    0.18623    1.000
    C35      C        0.11320    0.38177    0.11127    1.000
    H23      H        0.19120    0.39330    0.09890    1.000
    C36      C        0.12140    0.33738    0.15298    1.000
    O15      O        0.43360    0.14691    0.24881    1.000
    O16      O        0.25400    0.27277    0.21644    1.000
    C37      C        0.00540    0.31919    0.17060    1.000
    H24      H        0.00930    0.28900    0.19840    1.000
    C38      C        0.49010    0.94396    0.18447    1.000
    C39      C        0.25250    0.31040    0.17893    1.000
    C40      C        0.49840    0.00493    0.05174    1.000
    C41      C        0.47430    0.14519    0.20772    1.000
    C42      C        0.92600    0.43470    0.99597    1.000
    C43      C        0.99140    0.45720    0.04244    1.000
    O17      O        0.70720    0.28713    0.93480    1.000
    C44      C        0.88370    0.34550    0.14716    1.000
    C45      C        0.93540    0.47730    0.95231    1.000
    C46      C        0.49930    0.94277    0.13405    1.000
    H25      H        0.50950    0.89850    0.11840    1.000
    C47      C        0.99240    0.40950    0.08749    1.000
    C48      C        0.49350    0.00727    0.10651    1.000
    C49      C        0.47770    0.07361    0.18182    1.000
    C50      C        0.48700    0.07191    0.13195    1.000
    H26      H        0.48890    0.11570    0.11470    1.000
    C51      C        0.87660    0.39090    0.10567    1.000
    H27      H        0.79410    0.40880    0.09020    1.000
    C52      C        0.38690    0.97673    0.01929    1.000
    C53      C        0.47530    0.00925    0.20789    1.000
    H28      H        0.46380    0.01000    0.24130    1.000
    C54      C        0.61010    0.02919    0.03248    1.000
    C55      C        0.84950    0.36850    0.98918    1.000
    H29      H        0.84440    0.33920    0.01680    1.000
    C56      C        0.26640    0.95620    0.03711    1.000
    H30      H        0.26120    0.96230    0.07080    1.000
    O18      O        0.94010    0.11570    0.07117    1.000
    C57      C        0.79880    0.38870    0.90055    1.000
    C58      C        0.72440    0.06030    0.06418    1.000
    H31      H        0.72300    0.06560    0.09820    1.000
    C59      C        0.87080    0.45070    0.90470    1.000
    H32      H        0.87900    0.47690    0.87600    1.000
    C60      C        0.78500    0.34760    0.94410    1.000
    O19      O        0.04320    0.90830    0.01960    1.000
    C61      C        0.03120    0.92210    0.07130    1.000
    H33      H        0.09220    0.89120    0.09270    1.000
    H34      H        0.94110    0.91220    0.07630    1.000
    H35      H        0.05240    0.97220    0.07920    1.000
    C62      C        0.16130    0.92880    0.00672    1.000
    C63      C        0.69210    0.24350    0.97720    1.000
    H36      H        0.66200    0.27350    0.00220    1.000
    H37      H        0.77680    0.22180    0.99070    1.000
    H38      H        0.62750    0.20570    0.96720    1.000
    C64      C        0.83210    0.08170    0.04536    1.000
    O20      O        0.64670    0.34565    0.14387    1.000
    O21      O        0.76450    0.28669    0.20515    1.000
    O22      O        0.44820    0.87242    0.25157    1.000
    C65      C        0.75830    0.32410    0.16700    1.000
    O23      O        0.55770    0.82323    0.19643    1.000
    C66      C        0.93460    0.13940    0.12100    1.000
    H39      H        0.92530    0.09780    0.14170    1.000
    H40      H        0.85920    0.17130    0.12080    1.000
    H41      H        0.01560    0.16500    0.13390    1.000
    C67      C        0.49950    0.87380    0.21326    1.000
    O24      O        0.73370    0.36003    0.85721    1.000
    C68      C        0.75480    0.39530    0.81188    1.000
    H42      H        0.84920    0.40050    0.81180    1.000
    H43      H        0.71350    0.44260    0.80990    1.000
    H44      H        0.71570    0.36650    0.78370    1.000
    Zn5      Zn       0.53573    0.19607    0.69242    1.000
    Zn6      Zn       0.36333    0.26987    0.78082    1.000
    O25      O        0.35320    0.17042    0.66067    1.000
    O26      O        0.51650    0.30129    0.68623    1.000
    C69      C        0.11320    0.11823    0.61127    1.000
    H45      H        0.19120    0.10670    0.59890    1.000
    C70      C        0.12140    0.16262    0.65298    1.000
    O27      O        0.43360    0.35309    0.74881    1.000
    O28      O        0.25400    0.22723    0.71644    1.000
    C71      C        0.00540    0.18081    0.67060    1.000
    H46      H        0.00930    0.21100    0.69840    1.000
    C72      C        0.49010    0.55604    0.68447    1.000
    C73      C        0.25250    0.18960    0.67893    1.000
    C74      C        0.49840    0.49507    0.55174    1.000
    C75      C        0.47430    0.35481    0.70772    1.000
    C76      C        0.92600    0.06530    0.49597    1.000
    C77      C        0.99140    0.04280    0.54244    1.000
    O29      O        0.70720    0.21287    0.43480    1.000
    C78      C        0.88370    0.15450    0.64716    1.000
    C79      C        0.93540    0.02270    0.45231    1.000
    C80      C        0.49930    0.55723    0.63405    1.000
    H47      H        0.50950    0.60150    0.61840    1.000
    C81      C        0.99240    0.09050    0.58749    1.000
    C82      C        0.49350    0.49273    0.60651    1.000
    C83      C        0.47770    0.42639    0.68182    1.000
    C84      C        0.48700    0.42809    0.63195    1.000
    H48      H        0.48890    0.38430    0.61470    1.000
    C85      C        0.87660    0.10910    0.60567    1.000
    H49      H        0.79410    0.09120    0.59020    1.000
    C86      C        0.38690    0.52327    0.51929    1.000
    C87      C        0.47530    0.49075    0.70789    1.000
    H50      H        0.46380    0.49000    0.74130    1.000
    C88      C        0.61010    0.47081    0.53248    1.000
    C89      C        0.84950    0.13150    0.48918    1.000
    H51      H        0.84440    0.16080    0.51680    1.000
    C90      C        0.26640    0.54380    0.53711    1.000
    H52      H        0.26120    0.53770    0.57080    1.000
    O30      O        0.94010    0.38430    0.57117    1.000
    C91      C        0.79880    0.11130    0.40055    1.000
    C92      C        0.72440    0.43970    0.56418    1.000
    H53      H        0.72300    0.43440    0.59820    1.000
    C93      C        0.87080    0.04930    0.40470    1.000
    H54      H        0.87900    0.02310    0.37600    1.000
    C94      C        0.78500    0.15240    0.44410    1.000
    O31      O        0.04320    0.59170    0.51960    1.000
    C95      C        0.03120    0.57790    0.57130    1.000
    H55      H        0.09220    0.60880    0.59270    1.000
    H56      H        0.94110    0.58780    0.57630    1.000
    H57      H        0.05240    0.52780    0.57920    1.000
    C96      C        0.16130    0.57120    0.50672    1.000
    C97      C        0.69210    0.25650    0.47720    1.000
    H58      H        0.66200    0.22650    0.50220    1.000
    H59      H        0.77680    0.27820    0.49070    1.000
    H60      H        0.62750    0.29430    0.46720    1.000
    C98      C        0.83210    0.41830    0.54536    1.000
    O32      O        0.64670    0.15435    0.64387    1.000
    O33      O        0.76450    0.21331    0.70515    1.000
    O34      O        0.44820    0.62758    0.75157    1.000
    C99      C        0.75830    0.17590    0.66700    1.000
    O35      O        0.55770    0.67677    0.69643    1.000
    C100     C        0.93460    0.36060    0.62100    1.000
    H61      H        0.92530    0.40220    0.64170    1.000
    H62      H        0.85920    0.32870    0.62080    1.000
    H63      H        0.01560    0.33500    0.63390    1.000
    C101     C        0.49950    0.62620    0.71326    1.000
    O36      O        0.73370    0.13997    0.35721    1.000
    C102     C        0.75480    0.10470    0.31188    1.000
    H64      H        0.84920    0.09950    0.31180    1.000
    H65      H        0.71350    0.05740    0.30990    1.000
    H66      H        0.71570    0.13350    0.28370    1.000
    Zn7      Zn       0.46427    0.69607    0.80758    1.000
    Zn8      Zn       0.63667    0.76987    0.71918    1.000
    O37      O        0.64680    0.67042    0.83933    1.000
    O38      O        0.48350    0.80129    0.81377    1.000
    C103     C        0.88680    0.61823    0.88873    1.000
    H67      H        0.80880    0.60670    0.90110    1.000
    C104     C        0.87860    0.66262    0.84702    1.000
    O39      O        0.56640    0.85309    0.75119    1.000
    O40      O        0.74600    0.72723    0.78356    1.000
    C105     C        0.99460    0.68081    0.82940    1.000
    H68      H        0.99070    0.71100    0.80160    1.000
    C106     C        0.50990    0.05604    0.81553    1.000
    C107     C        0.74750    0.68960    0.82107    1.000
    C108     C        0.50160    0.99507    0.94826    1.000
    C109     C        0.52570    0.85481    0.79228    1.000
    C110     C        0.07400    0.56530    0.00403    1.000
    C111     C        0.00860    0.54280    0.95756    1.000
    O41      O        0.29280    0.71287    0.06520    1.000
    C112     C        0.11630    0.65450    0.85284    1.000
    C113     C        0.06460    0.52270    0.04769    1.000
    C114     C        0.50070    0.05723    0.86595    1.000
    H69      H        0.49050    0.10150    0.88160    1.000
    C115     C        0.00760    0.59050    0.91251    1.000
    C116     C        0.50650    0.99273    0.89349    1.000
    C117     C        0.52230    0.92639    0.81818    1.000
    C118     C        0.51300    0.92809    0.86805    1.000
    H70      H        0.51110    0.88430    0.88530    1.000
    C119     C        0.12340    0.60910    0.89433    1.000
    H71      H        0.20590    0.59120    0.90980    1.000
    C120     C        0.61310    0.02327    0.98071    1.000
    C121     C        0.52470    0.99075    0.79211    1.000
    H72      H        0.53620    0.99000    0.75870    1.000
    C122     C        0.38990    0.97081    0.96752    1.000
    C123     C        0.15050    0.63150    0.01082    1.000
    H73      H        0.15560    0.66080    0.98320    1.000
    C124     C        0.73360    0.04380    0.96289    1.000
    H74      H        0.73880    0.03770    0.92920    1.000
    O42      O        0.05990    0.88430    0.92883    1.000
    C125     C        0.20120    0.61130    0.09945    1.000
    C126     C        0.27560    0.93970    0.93582    1.000
    H75      H        0.27700    0.93440    0.90180    1.000
    C127     C        0.12920    0.54930    0.09530    1.000
    H76      H        0.12100    0.52310    0.12400    1.000
    C128     C        0.21500    0.65240    0.05590    1.000
    O43      O        0.95680    0.09170    0.98040    1.000
    C129     C        0.96880    0.07790    0.92870    1.000
    H77      H        0.90780    0.10880    0.90730    1.000
    H78      H        0.05890    0.08780    0.92370    1.000
    H79      H        0.94760    0.02780    0.92080    1.000
    C130     C        0.83870    0.07120    0.99328    1.000
    C131     C        0.30790    0.75650    0.02280    1.000
    H80      H        0.33800    0.72650    0.99780    1.000
    H81      H        0.22320    0.77820    0.00930    1.000
    H82      H        0.37250    0.79430    0.03280    1.000
    C132     C        0.16790    0.91830    0.95464    1.000
    O44      O        0.35330    0.65435    0.85613    1.000
    O45      O        0.23550    0.71331    0.79485    1.000
    O46      O        0.55180    0.12758    0.74843    1.000
    C133     C        0.24170    0.67590    0.83300    1.000
    O47      O        0.44230    0.17677    0.80357    1.000
    C134     C        0.06540    0.86060    0.87900    1.000
    H83      H        0.07470    0.90220    0.85830    1.000
    H84      H        0.14080    0.82870    0.87920    1.000
    H85      H        0.98440    0.83500    0.86610    1.000
    C135     C        0.50050    0.12620    0.78674    1.000
    O48      O        0.26630    0.63997    0.14279    1.000
    C136     C        0.24520    0.60470    0.18812    1.000
    H86      H        0.15080    0.59950    0.18820    1.000
    H87      H        0.28650    0.55740    0.19010    1.000
    H88      H        0.28430    0.63350    0.21630    1.000
