# CIF file generated by openbabel 3.1.0, see https://openbabel.org
data_I
_chemical_name_common 'image0'
_cell_length_a 25.5191
_cell_length_b 25.5191
_cell_length_c 50.91
_cell_angle_alpha 90
_cell_angle_beta 90
_cell_angle_gamma 90
_space_group_name_H-M_alt 'P 1'
_space_group_name_Hall 'P 1'
loop_
    _symmetry_equiv_pos_as_xyz
    x,y,z
loop_
    _atom_site_label
    _atom_site_type_symbol
    _atom_site_fract_x
    _atom_site_fract_y
    _atom_site_fract_z
    _atom_site_occupancy
    C1       C        0.23490    0.95750    0.93068    1.000
    C2       C        0.22560    0.96170    0.90150    1.000
    C3       C        0.25450    0.93140    0.88423    1.000
    C4       C        0.18850    0.99700    0.89272    1.000
    C5       C        0.35880    0.92410    0.89470    1.000
    H1       H        0.35330    0.95310    0.88240    1.000
    H2       H        0.38770    0.90200    0.88850    1.000
    H3       H        0.36750    0.93810    0.91210    1.000
    C6       C        0.09450    0.99070    0.91760    1.000
    H4       H        0.08250    0.98360    0.89970    1.000
    H5       H        0.06640    0.00820    0.92740    1.000
    H6       H        0.10340    0.95760    0.92630    1.000
    S1       S        0.40573    0.08831    0.02216    1.000
    S2       S        0.53063    0.11944    0.02525    1.000
    S3       S        0.41800    0.06451    0.02275    1.000
    S4       S        0.54374    0.09549    0.02615    1.000
    O1       O        0.36390    0.96080    0.01440    1.000
    O2       O        0.36050    0.00180    0.97549    1.000
    O3       O        0.37780    0.93710    0.01610    1.000
    O4       O        0.37130    0.97860    0.97780    1.000
    C7       C        0.38340    0.98470    0.99690    1.000
    C8       C        0.44080    0.99880    0.99838    1.000
    C9       C        0.45610    0.04590    0.00964    1.000
    C10      C        0.50890    0.05894    0.01093    1.000
    C11      C        0.45360    0.97520    0.99904    1.000
    C12      C        0.46900    0.02240    0.01030    1.000
    C13      C        0.52180    0.03542    0.01159    1.000
    C14      C        0.39600    0.96130    0.99772    1.000
    C15      C        0.39600    0.13070    0.99440    1.000
    H7       H        0.39240    0.10960    0.97840    1.000
    H8       H        0.42620    0.15420    0.99260    1.000
    H9       H        0.36420    0.15150    0.99700    1.000
    C16      C        0.52900    0.09900    0.05940    1.000
    H10      H        0.55090    0.06780    0.06160    1.000
    H11      H        0.49290    0.09090    0.06440    1.000
    H12      H        0.54240    0.12740    0.07050    1.000
    C17      C        0.41640    0.11330    0.99710    1.000
    H13      H        0.42010    0.09620    0.97990    1.000
    H14      H        0.38300    0.13220    0.99770    1.000
    H15      H        0.44530    0.13810    0.99960    1.000
    C18      C        0.53500    0.07740    0.06020    1.000
    H16      H        0.54500    0.04070    0.06260    1.000
    H17      H        0.55680    0.09980    0.07130    1.000
    H18      H        0.49800    0.08190    0.06510    1.000
    S5       S        0.28290    0.27118    0.04564    1.000
    S6       S        0.29087    0.14312    0.04517    1.000
    S7       S        0.32112    0.13773    0.04648    1.000
    S8       S        0.33137    0.26070    0.04681    1.000
    O5       O        0.19480    0.33950    0.01590    1.000
    O6       O        0.25680    0.33940    0.98470    1.000
    C19      C        0.22470    0.31840    0.00060    1.000
    C20      C        0.22710    0.25928    0.99972    1.000
    C21      C        0.25340    0.23340    0.01978    1.000
    C22      C        0.25689    0.17900    0.01957    1.000
    C23      C        0.23400    0.15056    0.99930    1.000
    C24      C        0.29229    0.17650    0.02076    1.000
    C25      C        0.29577    0.23080    0.02055    1.000
    C26      C        0.22560    0.28460    0.06640    1.000
    H19      H        0.23670    0.30370    0.08210    1.000
    H20      H        0.20030    0.30580    0.05650    1.000
    H21      H        0.20920    0.25140    0.07160    1.000
    C27      C        0.23860    0.13270    0.06910    1.000
    H22      H        0.20880    0.11560    0.06050    1.000
    H23      H        0.25150    0.11030    0.08340    1.000
    H24      H        0.22750    0.16650    0.07630    1.000
    C28      C        0.26620    0.13970    0.06900    1.000
    H25      H        0.23340    0.13770    0.05910    1.000
    H26      H        0.26840    0.11000    0.08120    1.000
    H27      H        0.26720    0.17250    0.07900    1.000
    C29      C        0.39610    0.24850    0.03280    1.000
    H28      H        0.40510    0.21140    0.03490    1.000
    H29      H        0.39580    0.25730    0.01400    1.000
    H30      H        0.42220    0.27010    0.04180    1.000
    O7       O        0.14070    0.35650    0.02840    1.000
    H31      H        0.11100    0.35400    0.02100    1.000
    H32      H        0.14000    0.32800    0.03700    1.000
    O8       O        0.28240    0.07060    0.98528    1.000
    O9       O        0.20890    0.92470    0.94306    1.000
    O10      O        0.26930    0.98880    0.93950    1.000
    S9       S        0.29974    0.88529    0.89690    1.000
    S10      S        0.15167    0.03258    0.91663    1.000
    Zn1      Zn       0.28979    0.99630    0.97611    1.000
    Zn2      Zn       0.19714    0.91168    0.98109    1.000
    C30      C        0.73490    0.45750    0.43068    1.000
    C31      C        0.72560    0.46170    0.40150    1.000
    C32      C        0.75450    0.43140    0.38423    1.000
    C33      C        0.68850    0.49700    0.39272    1.000
    C34      C        0.85880    0.42410    0.39470    1.000
    H33      H        0.85330    0.45310    0.38240    1.000
    H34      H        0.88770    0.40200    0.38850    1.000
    H35      H        0.86750    0.43810    0.41210    1.000
    C35      C        0.59450    0.49070    0.41760    1.000
    H36      H        0.58250    0.48360    0.39970    1.000
    H37      H        0.56640    0.50820    0.42740    1.000
    H38      H        0.60340    0.45760    0.42630    1.000
    S11      S        0.90573    0.58831    0.52216    1.000
    S12      S        0.03063    0.61944    0.52525    1.000
    S13      S        0.91800    0.56451    0.52275    1.000
    S14      S        0.04374    0.59549    0.52615    1.000
    O11      O        0.86390    0.46080    0.51440    1.000
    O12      O        0.86050    0.50180    0.47549    1.000
    O13      O        0.87780    0.43710    0.51610    1.000
    O14      O        0.87130    0.47860    0.47780    1.000
    C36      C        0.88340    0.48470    0.49690    1.000
    C37      C        0.94080    0.49880    0.49838    1.000
    C38      C        0.95610    0.54590    0.50964    1.000
    C39      C        0.00890    0.55894    0.51093    1.000
    C40      C        0.95360    0.47520    0.49904    1.000
    C41      C        0.96900    0.52240    0.51030    1.000
    C42      C        0.02180    0.53542    0.51159    1.000
    C43      C        0.89600    0.46130    0.49772    1.000
    C44      C        0.89600    0.63070    0.49440    1.000
    H39      H        0.89240    0.60960    0.47840    1.000
    H40      H        0.92620    0.65420    0.49260    1.000
    H41      H        0.86420    0.65150    0.49700    1.000
    C45      C        0.02900    0.59900    0.55940    1.000
    H42      H        0.05090    0.56780    0.56160    1.000
    H43      H        0.99290    0.59090    0.56440    1.000
    H44      H        0.04240    0.62740    0.57050    1.000
    C46      C        0.91640    0.61330    0.49710    1.000
    H45      H        0.92010    0.59620    0.47990    1.000
    H46      H        0.88300    0.63220    0.49770    1.000
    H47      H        0.94530    0.63810    0.49960    1.000
    C47      C        0.03500    0.57740    0.56020    1.000
    H48      H        0.04500    0.54070    0.56260    1.000
    H49      H        0.05680    0.59980    0.57130    1.000
    H50      H        0.99800    0.58190    0.56510    1.000
    S15      S        0.78290    0.77118    0.54564    1.000
    S16      S        0.79087    0.64312    0.54517    1.000
    S17      S        0.82112    0.63773    0.54648    1.000
    S18      S        0.83137    0.76070    0.54681    1.000
    O15      O        0.69480    0.83950    0.51590    1.000
    O16      O        0.75680    0.83940    0.48470    1.000
    C48      C        0.72470    0.81840    0.50060    1.000
    C49      C        0.72710    0.75928    0.49972    1.000
    C50      C        0.75340    0.73340    0.51978    1.000
    C51      C        0.75689    0.67900    0.51957    1.000
    C52      C        0.73400    0.65056    0.49930    1.000
    C53      C        0.79229    0.67650    0.52076    1.000
    C54      C        0.79577    0.73080    0.52055    1.000
    C55      C        0.72560    0.78460    0.56640    1.000
    H51      H        0.73670    0.80370    0.58210    1.000
    H52      H        0.70030    0.80580    0.55650    1.000
    H53      H        0.70920    0.75140    0.57160    1.000
    C56      C        0.73860    0.63270    0.56910    1.000
    H54      H        0.70880    0.61560    0.56050    1.000
    H55      H        0.75150    0.61030    0.58340    1.000
    H56      H        0.72750    0.66650    0.57630    1.000
    C57      C        0.76620    0.63970    0.56900    1.000
    H57      H        0.73340    0.63770    0.55910    1.000
    H58      H        0.76840    0.61000    0.58120    1.000
    H59      H        0.76720    0.67250    0.57900    1.000
    C58      C        0.89610    0.74850    0.53280    1.000
    H60      H        0.90510    0.71140    0.53490    1.000
    H61      H        0.89580    0.75730    0.51400    1.000
    H62      H        0.92220    0.77010    0.54180    1.000
    O17      O        0.64070    0.85650    0.52840    1.000
    H63      H        0.61100    0.85400    0.52100    1.000
    H64      H        0.64000    0.82800    0.53700    1.000
    O18      O        0.78240    0.57060    0.48528    1.000
    O19      O        0.70890    0.42470    0.44306    1.000
    O20      O        0.76930    0.48880    0.43950    1.000
    S19      S        0.79974    0.38529    0.39690    1.000
    S20      S        0.65167    0.53258    0.41663    1.000
    Zn3      Zn       0.78979    0.49630    0.47611    1.000
    Zn4      Zn       0.69714    0.41168    0.48109    1.000
    C59      C        0.26510    0.04250    0.43068    1.000
    C60      C        0.27440    0.03830    0.40150    1.000
    C61      C        0.24550    0.06860    0.38423    1.000
    C62      C        0.31150    0.00300    0.39272    1.000
    C63      C        0.14120    0.07590    0.39470    1.000
    H65      H        0.14670    0.04690    0.38240    1.000
    H66      H        0.11230    0.09800    0.38850    1.000
    H67      H        0.13250    0.06190    0.41210    1.000
    C64      C        0.40550    0.00930    0.41760    1.000
    H68      H        0.41750    0.01640    0.39970    1.000
    H69      H        0.43360    0.99180    0.42740    1.000
    H70      H        0.39660    0.04240    0.42630    1.000
    S21      S        0.09427    0.91169    0.52216    1.000
    S22      S        0.96937    0.88056    0.52525    1.000
    S23      S        0.08200    0.93549    0.52275    1.000
    S24      S        0.95626    0.90451    0.52615    1.000
    O21      O        0.13610    0.03920    0.51440    1.000
    O22      O        0.13950    0.99820    0.47549    1.000
    O23      O        0.12220    0.06290    0.51610    1.000
    O24      O        0.12870    0.02140    0.47780    1.000
    C65      C        0.11660    0.01530    0.49690    1.000
    C66      C        0.05920    0.00120    0.49838    1.000
    C67      C        0.04390    0.95410    0.50964    1.000
    C68      C        0.99110    0.94106    0.51093    1.000
    C69      C        0.04640    0.02480    0.49904    1.000
    C70      C        0.03100    0.97760    0.51030    1.000
    C71      C        0.97820    0.96458    0.51159    1.000
    C72      C        0.10400    0.03870    0.49772    1.000
    C73      C        0.10400    0.86930    0.49440    1.000
    H71      H        0.10760    0.89040    0.47840    1.000
    H72      H        0.07380    0.84580    0.49260    1.000
    H73      H        0.13580    0.84850    0.49700    1.000
    C74      C        0.97100    0.90100    0.55940    1.000
    H74      H        0.94910    0.93220    0.56160    1.000
    H75      H        0.00710    0.90910    0.56440    1.000
    H76      H        0.95760    0.87260    0.57050    1.000
    C75      C        0.08360    0.88670    0.49710    1.000
    H77      H        0.07990    0.90380    0.47990    1.000
    H78      H        0.11700    0.86780    0.49770    1.000
    H79      H        0.05470    0.86190    0.49960    1.000
    C76      C        0.96500    0.92260    0.56020    1.000
    H80      H        0.95500    0.95930    0.56260    1.000
    H81      H        0.94320    0.90020    0.57130    1.000
    H82      H        0.00200    0.91810    0.56510    1.000
    S25      S        0.21710    0.72882    0.54564    1.000
    S26      S        0.20913    0.85688    0.54517    1.000
    S27      S        0.17888    0.86227    0.54648    1.000
    S28      S        0.16863    0.73930    0.54681    1.000
    O25      O        0.30520    0.66050    0.51590    1.000
    O26      O        0.24320    0.66060    0.48470    1.000
    C77      C        0.27530    0.68160    0.50060    1.000
    C78      C        0.27290    0.74072    0.49972    1.000
    C79      C        0.24660    0.76660    0.51978    1.000
    C80      C        0.24311    0.82100    0.51957    1.000
    C81      C        0.26600    0.84944    0.49930    1.000
    C82      C        0.20771    0.82350    0.52076    1.000
    C83      C        0.20423    0.76920    0.52055    1.000
    C84      C        0.27440    0.71540    0.56640    1.000
    H83      H        0.26330    0.69630    0.58210    1.000
    H84      H        0.29970    0.69420    0.55650    1.000
    H85      H        0.29080    0.74860    0.57160    1.000
    C85      C        0.26140    0.86730    0.56910    1.000
    H86      H        0.29120    0.88440    0.56050    1.000
    H87      H        0.24850    0.88970    0.58340    1.000
    H88      H        0.27250    0.83350    0.57630    1.000
    C86      C        0.23380    0.86030    0.56900    1.000
    H89      H        0.26660    0.86230    0.55910    1.000
    H90      H        0.23160    0.89000    0.58120    1.000
    H91      H        0.23280    0.82750    0.57900    1.000
    C87      C        0.10390    0.75150    0.53280    1.000
    H92      H        0.09490    0.78860    0.53490    1.000
    H93      H        0.10420    0.74270    0.51400    1.000
    H94      H        0.07780    0.72990    0.54180    1.000
    O27      O        0.35930    0.64350    0.52840    1.000
    H95      H        0.38900    0.64600    0.52100    1.000
    H96      H        0.36000    0.67200    0.53700    1.000
    O28      O        0.21760    0.92940    0.48528    1.000
    O29      O        0.29110    0.07530    0.44306    1.000
    O30      O        0.23070    0.01120    0.43950    1.000
    S29      S        0.20026    0.11471    0.39690    1.000
    S30      S        0.34833    0.96742    0.41663    1.000
    Zn5      Zn       0.21021    0.00370    0.47611    1.000
    Zn6      Zn       0.30286    0.08832    0.48109    1.000
    C88      C        0.76510    0.54250    0.93068    1.000
    C89      C        0.77440    0.53830    0.90150    1.000
    C90      C        0.74550    0.56860    0.88423    1.000
    C91      C        0.81150    0.50300    0.89272    1.000
    C92      C        0.64120    0.57590    0.89470    1.000
    H97      H        0.64670    0.54690    0.88240    1.000
    H98      H        0.61230    0.59800    0.88850    1.000
    H99      H        0.63250    0.56190    0.91210    1.000
    C93      C        0.90550    0.50930    0.91760    1.000
    H100     H        0.91750    0.51640    0.89970    1.000
    H101     H        0.93360    0.49180    0.92740    1.000
    H102     H        0.89660    0.54240    0.92630    1.000
    S31      S        0.59427    0.41169    0.02216    1.000
    S32      S        0.46937    0.38056    0.02525    1.000
    S33      S        0.58200    0.43549    0.02275    1.000
    S34      S        0.45626    0.40451    0.02615    1.000
    O31      O        0.63610    0.53920    0.01440    1.000
    O32      O        0.63950    0.49820    0.97549    1.000
    O33      O        0.62220    0.56290    0.01610    1.000
    O34      O        0.62870    0.52140    0.97780    1.000
    C94      C        0.61660    0.51530    0.99690    1.000
    C95      C        0.55920    0.50120    0.99838    1.000
    C96      C        0.54390    0.45410    0.00964    1.000
    C97      C        0.49110    0.44106    0.01093    1.000
    C98      C        0.54640    0.52480    0.99904    1.000
    C99      C        0.53100    0.47760    0.01030    1.000
    C100     C        0.47820    0.46458    0.01159    1.000
    C101     C        0.60400    0.53870    0.99772    1.000
    C102     C        0.60400    0.36930    0.99440    1.000
    H103     H        0.60760    0.39040    0.97840    1.000
    H104     H        0.57380    0.34580    0.99260    1.000
    H105     H        0.63580    0.34850    0.99700    1.000
    C103     C        0.47100    0.40100    0.05940    1.000
    H106     H        0.44910    0.43220    0.06160    1.000
    H107     H        0.50710    0.40910    0.06440    1.000
    H108     H        0.45760    0.37260    0.07050    1.000
    C104     C        0.58360    0.38670    0.99710    1.000
    H109     H        0.57990    0.40380    0.97990    1.000
    H110     H        0.61700    0.36780    0.99770    1.000
    H111     H        0.55470    0.36190    0.99960    1.000
    C105     C        0.46500    0.42260    0.06020    1.000
    H112     H        0.45500    0.45930    0.06260    1.000
    H113     H        0.44320    0.40020    0.07130    1.000
    H114     H        0.50200    0.41810    0.06510    1.000
    S35      S        0.71710    0.22882    0.04564    1.000
    S36      S        0.70913    0.35688    0.04517    1.000
    S37      S        0.67888    0.36227    0.04648    1.000
    S38      S        0.66863    0.23930    0.04681    1.000
    O35      O        0.80520    0.16050    0.01590    1.000
    O36      O        0.74320    0.16060    0.98470    1.000
    C106     C        0.77530    0.18160    0.00060    1.000
    C107     C        0.77290    0.24072    0.99972    1.000
    C108     C        0.74660    0.26660    0.01978    1.000
    C109     C        0.74311    0.32100    0.01957    1.000
    C110     C        0.76600    0.34944    0.99930    1.000
    C111     C        0.70771    0.32350    0.02076    1.000
    C112     C        0.70423    0.26920    0.02055    1.000
    C113     C        0.77440    0.21540    0.06640    1.000
    H115     H        0.76330    0.19630    0.08210    1.000
    H116     H        0.79970    0.19420    0.05650    1.000
    H117     H        0.79080    0.24860    0.07160    1.000
    C114     C        0.76140    0.36730    0.06910    1.000
    H118     H        0.79120    0.38440    0.06050    1.000
    H119     H        0.74850    0.38970    0.08340    1.000
    H120     H        0.77250    0.33350    0.07630    1.000
    C115     C        0.73380    0.36030    0.06900    1.000
    H121     H        0.76660    0.36230    0.05910    1.000
    H122     H        0.73160    0.39000    0.08120    1.000
    H123     H        0.73280    0.32750    0.07900    1.000
    C116     C        0.60390    0.25150    0.03280    1.000
    H124     H        0.59490    0.28860    0.03490    1.000
    H125     H        0.60420    0.24270    0.01400    1.000
    H126     H        0.57780    0.22990    0.04180    1.000
    O37      O        0.85930    0.14350    0.02840    1.000
    H127     H        0.88900    0.14600    0.02100    1.000
    H128     H        0.86000    0.17200    0.03700    1.000
    O38      O        0.71760    0.42940    0.98528    1.000
    O39      O        0.79110    0.57530    0.94306    1.000
    O40      O        0.73070    0.51120    0.93950    1.000
    S39      S        0.70026    0.61471    0.89690    1.000
    S40      S        0.84833    0.46742    0.91663    1.000
    Zn7      Zn       0.71021    0.50370    0.97611    1.000
    Zn8      Zn       0.80286    0.58832    0.98109    1.000
    C117     C        0.29250    0.98490    0.18068    1.000
    C118     C        0.28830    0.97560    0.15150    1.000
    C119     C        0.31860    0.00450    0.13423    1.000
    C120     C        0.25300    0.93850    0.14272    1.000
    C121     C        0.32590    0.10880    0.14470    1.000
    H129     H        0.29690    0.10330    0.13240    1.000
    H130     H        0.34800    0.13770    0.13850    1.000
    H131     H        0.31190    0.11750    0.16210    1.000
    C122     C        0.25930    0.84450    0.16760    1.000
    H132     H        0.26640    0.83250    0.14970    1.000
    H133     H        0.24180    0.81640    0.17740    1.000
    H134     H        0.29240    0.85340    0.17630    1.000
    S41      S        0.16169    0.15573    0.27216    1.000
    S42      S        0.13056    0.28063    0.27525    1.000
    S43      S        0.18549    0.16800    0.27275    1.000
    S44      S        0.15451    0.29374    0.27615    1.000
    O41      O        0.28920    0.11390    0.26440    1.000
    O42      O        0.24820    0.11050    0.22549    1.000
    O43      O        0.31290    0.12780    0.26610    1.000
    O44      O        0.27140    0.12130    0.22780    1.000
    C123     C        0.26530    0.13340    0.24690    1.000
    C124     C        0.25120    0.19080    0.24838    1.000
    C125     C        0.20410    0.20610    0.25964    1.000
    C126     C        0.19106    0.25890    0.26093    1.000
    C127     C        0.27480    0.20360    0.24904    1.000
    C128     C        0.22760    0.21900    0.26030    1.000
    C129     C        0.21458    0.27180    0.26159    1.000
    C130     C        0.28870    0.14600    0.24772    1.000
    C131     C        0.11930    0.14600    0.24440    1.000
    H135     H        0.14040    0.14240    0.22840    1.000
    H136     H        0.09580    0.17620    0.24260    1.000
    H137     H        0.09850    0.11420    0.24700    1.000
    C132     C        0.15100    0.27900    0.30940    1.000
    H138     H        0.18220    0.30090    0.31160    1.000
    H139     H        0.15910    0.24290    0.31440    1.000
    H140     H        0.12260    0.29240    0.32050    1.000
    C133     C        0.13670    0.16640    0.24710    1.000
    H141     H        0.15380    0.17010    0.22990    1.000
    H142     H        0.11780    0.13300    0.24770    1.000
    H143     H        0.11190    0.19530    0.24960    1.000
    C134     C        0.17260    0.28500    0.31020    1.000
    H144     H        0.20930    0.29500    0.31260    1.000
    H145     H        0.15020    0.30680    0.32130    1.000
    H146     H        0.16810    0.24800    0.31510    1.000
    S45      S        0.97882    0.03290    0.29564    1.000
    S46      S        0.10688    0.04087    0.29517    1.000
    S47      S        0.11227    0.07112    0.29648    1.000
    S48      S        0.98930    0.08137    0.29681    1.000
    O45      O        0.91050    0.94480    0.26590    1.000
    O46      O        0.91060    0.00680    0.23470    1.000
    C135     C        0.93160    0.97470    0.25060    1.000
    C136     C        0.99072    0.97710    0.24972    1.000
    C137     C        0.01660    0.00340    0.26978    1.000
    C138     C        0.07100    0.00689    0.26957    1.000
    C139     C        0.09944    0.98400    0.24930    1.000
    C140     C        0.07350    0.04229    0.27076    1.000
    C141     C        0.01920    0.04577    0.27055    1.000
    C142     C        0.96540    0.97560    0.31640    1.000
    H147     H        0.94630    0.98670    0.33210    1.000
    H148     H        0.94420    0.95030    0.30650    1.000
    H149     H        0.99860    0.95920    0.32160    1.000
    C143     C        0.11730    0.98860    0.31910    1.000
    H150     H        0.13440    0.95880    0.31050    1.000
    H151     H        0.13970    0.00150    0.33340    1.000
    H152     H        0.08350    0.97750    0.32630    1.000
    C144     C        0.11030    0.01620    0.31900    1.000
    H153     H        0.11230    0.98340    0.30910    1.000
    H154     H        0.14000    0.01840    0.33120    1.000
    H155     H        0.07750    0.01720    0.32900    1.000
    C145     C        0.00150    0.14610    0.28280    1.000
    H156     H        0.03860    0.15510    0.28490    1.000
    H157     H        0.99270    0.14580    0.26400    1.000
    H158     H        0.97990    0.17220    0.29180    1.000
    O47      O        0.89350    0.89070    0.27840    1.000
    H159     H        0.89600    0.86100    0.27100    1.000
    H160     H        0.92200    0.89000    0.28700    1.000
    O48      O        0.17940    0.03240    0.23528    1.000
    O49      O        0.32530    0.95890    0.19306    1.000
    O50      O        0.26120    0.01930    0.18950    1.000
    S49      S        0.36471    0.04974    0.14690    1.000
    S50      S        0.21742    0.90167    0.16663    1.000
    Zn9      Zn       0.25370    0.03979    0.22611    1.000
    Zn10     Zn       0.33832    0.94714    0.23109    1.000
    C146     C        0.79250    0.48490    0.68068    1.000
    C147     C        0.78830    0.47560    0.65150    1.000
    C148     C        0.81860    0.50450    0.63423    1.000
    C149     C        0.75300    0.43850    0.64272    1.000
    C150     C        0.82590    0.60880    0.64470    1.000
    H161     H        0.79690    0.60330    0.63240    1.000
    H162     H        0.84800    0.63770    0.63850    1.000
    H163     H        0.81190    0.61750    0.66210    1.000
    C151     C        0.75930    0.34450    0.66760    1.000
    H164     H        0.76640    0.33250    0.64970    1.000
    H165     H        0.74180    0.31640    0.67740    1.000
    H166     H        0.79240    0.35340    0.67630    1.000
    S51      S        0.66169    0.65573    0.77216    1.000
    S52      S        0.63056    0.78063    0.77525    1.000
    S53      S        0.68549    0.66800    0.77275    1.000
    S54      S        0.65451    0.79374    0.77615    1.000
    O51      O        0.78920    0.61390    0.76440    1.000
    O52      O        0.74820    0.61050    0.72549    1.000
    O53      O        0.81290    0.62780    0.76610    1.000
    O54      O        0.77140    0.62130    0.72780    1.000
    C152     C        0.76530    0.63340    0.74690    1.000
    C153     C        0.75120    0.69080    0.74838    1.000
    C154     C        0.70410    0.70610    0.75964    1.000
    C155     C        0.69106    0.75890    0.76093    1.000
    C156     C        0.77480    0.70360    0.74904    1.000
    C157     C        0.72760    0.71900    0.76030    1.000
    C158     C        0.71458    0.77180    0.76159    1.000
    C159     C        0.78870    0.64600    0.74772    1.000
    C160     C        0.61930    0.64600    0.74440    1.000
    H167     H        0.64040    0.64240    0.72840    1.000
    H168     H        0.59580    0.67620    0.74260    1.000
    H169     H        0.59850    0.61420    0.74700    1.000
    C161     C        0.65100    0.77900    0.80940    1.000
    H170     H        0.68220    0.80090    0.81160    1.000
    H171     H        0.65910    0.74290    0.81440    1.000
    H172     H        0.62260    0.79240    0.82050    1.000
    C162     C        0.63670    0.66640    0.74710    1.000
    H173     H        0.65380    0.67010    0.72990    1.000
    H174     H        0.61780    0.63300    0.74770    1.000
    H175     H        0.61190    0.69530    0.74960    1.000
    C163     C        0.67260    0.78500    0.81020    1.000
    H176     H        0.70930    0.79500    0.81260    1.000
    H177     H        0.65020    0.80680    0.82130    1.000
    H178     H        0.66810    0.74800    0.81510    1.000
    S55      S        0.47882    0.53290    0.79564    1.000
    S56      S        0.60688    0.54087    0.79517    1.000
    S57      S        0.61227    0.57112    0.79648    1.000
    S58      S        0.48930    0.58137    0.79681    1.000
    O55      O        0.41050    0.44480    0.76590    1.000
    O56      O        0.41060    0.50680    0.73470    1.000
    C164     C        0.43160    0.47470    0.75060    1.000
    C165     C        0.49072    0.47710    0.74972    1.000
    C166     C        0.51660    0.50340    0.76978    1.000
    C167     C        0.57100    0.50689    0.76957    1.000
    C168     C        0.59944    0.48400    0.74930    1.000
    C169     C        0.57350    0.54229    0.77076    1.000
    C170     C        0.51920    0.54577    0.77055    1.000
    C171     C        0.46540    0.47560    0.81640    1.000
    H179     H        0.44630    0.48670    0.83210    1.000
    H180     H        0.44420    0.45030    0.80650    1.000
    H181     H        0.49860    0.45920    0.82160    1.000
    C172     C        0.61730    0.48860    0.81910    1.000
    H182     H        0.63440    0.45880    0.81050    1.000
    H183     H        0.63970    0.50150    0.83340    1.000
    H184     H        0.58350    0.47750    0.82630    1.000
    C173     C        0.61030    0.51620    0.81900    1.000
    H185     H        0.61230    0.48340    0.80910    1.000
    H186     H        0.64000    0.51840    0.83120    1.000
    H187     H        0.57750    0.51720    0.82900    1.000
    C174     C        0.50150    0.64610    0.78280    1.000
    H188     H        0.53860    0.65510    0.78490    1.000
    H189     H        0.49270    0.64580    0.76400    1.000
    H190     H        0.47990    0.67220    0.79180    1.000
    O57      O        0.39350    0.39070    0.77840    1.000
    H191     H        0.39600    0.36100    0.77100    1.000
    H192     H        0.42200    0.39000    0.78700    1.000
    O58      O        0.67940    0.53240    0.73528    1.000
    O59      O        0.82530    0.45890    0.69306    1.000
    O60      O        0.76120    0.51930    0.68950    1.000
    S59      S        0.86471    0.54974    0.64690    1.000
    S60      S        0.71742    0.40167    0.66663    1.000
    Zn11     Zn       0.75370    0.53979    0.72611    1.000
    Zn12     Zn       0.83832    0.44714    0.73109    1.000
    C175     C        0.20750    0.01510    0.68068    1.000
    C176     C        0.21170    0.02440    0.65150    1.000
    C177     C        0.18140    0.99550    0.63423    1.000
    C178     C        0.24700    0.06150    0.64272    1.000
    C179     C        0.17410    0.89120    0.64470    1.000
    H193     H        0.20310    0.89670    0.63240    1.000
    H194     H        0.15200    0.86230    0.63850    1.000
    H195     H        0.18810    0.88250    0.66210    1.000
    C180     C        0.24070    0.15550    0.66760    1.000
    H196     H        0.23360    0.16750    0.64970    1.000
    H197     H        0.25820    0.18360    0.67740    1.000
    H198     H        0.20760    0.14660    0.67630    1.000
    S61      S        0.33831    0.84427    0.77216    1.000
    S62      S        0.36944    0.71937    0.77525    1.000
    S63      S        0.31451    0.83200    0.77275    1.000
    S64      S        0.34549    0.70626    0.77615    1.000
    O61      O        0.21080    0.88610    0.76440    1.000
    O62      O        0.25180    0.88950    0.72549    1.000
    O63      O        0.18710    0.87220    0.76610    1.000
    O64      O        0.22860    0.87870    0.72780    1.000
    C181     C        0.23470    0.86660    0.74690    1.000
    C182     C        0.24880    0.80920    0.74838    1.000
    C183     C        0.29590    0.79390    0.75964    1.000
    C184     C        0.30894    0.74110    0.76093    1.000
    C185     C        0.22520    0.79640    0.74904    1.000
    C186     C        0.27240    0.78100    0.76030    1.000
    C187     C        0.28542    0.72820    0.76159    1.000
    C188     C        0.21130    0.85400    0.74772    1.000
    C189     C        0.38070    0.85400    0.74440    1.000
    H199     H        0.35960    0.85760    0.72840    1.000
    H200     H        0.40420    0.82380    0.74260    1.000
    H201     H        0.40150    0.88580    0.74700    1.000
    C190     C        0.34900    0.72100    0.80940    1.000
    H202     H        0.31780    0.69910    0.81160    1.000
    H203     H        0.34090    0.75710    0.81440    1.000
    H204     H        0.37740    0.70760    0.82050    1.000
    C191     C        0.36330    0.83360    0.74710    1.000
    H205     H        0.34620    0.82990    0.72990    1.000
    H206     H        0.38220    0.86700    0.74770    1.000
    H207     H        0.38810    0.80470    0.74960    1.000
    C192     C        0.32740    0.71500    0.81020    1.000
    H208     H        0.29070    0.70500    0.81260    1.000
    H209     H        0.34980    0.69320    0.82130    1.000
    H210     H        0.33190    0.75200    0.81510    1.000
    S65      S        0.52118    0.96710    0.79564    1.000
    S66      S        0.39312    0.95913    0.79517    1.000
    S67      S        0.38773    0.92888    0.79648    1.000
    S68      S        0.51070    0.91863    0.79681    1.000
    O65      O        0.58950    0.05520    0.76590    1.000
    O66      O        0.58940    0.99320    0.73470    1.000
    C193     C        0.56840    0.02530    0.75060    1.000
    C194     C        0.50928    0.02290    0.74972    1.000
    C195     C        0.48340    0.99660    0.76978    1.000
    C196     C        0.42900    0.99311    0.76957    1.000
    C197     C        0.40056    0.01600    0.74930    1.000
    C198     C        0.42650    0.95771    0.77076    1.000
    C199     C        0.48080    0.95423    0.77055    1.000
    C200     C        0.53460    0.02440    0.81640    1.000
    H211     H        0.55370    0.01330    0.83210    1.000
    H212     H        0.55580    0.04970    0.80650    1.000
    H213     H        0.50140    0.04080    0.82160    1.000
    C201     C        0.38270    0.01140    0.81910    1.000
    H214     H        0.36560    0.04120    0.81050    1.000
    H215     H        0.36030    0.99850    0.83340    1.000
    H216     H        0.41650    0.02250    0.82630    1.000
    C202     C        0.38970    0.98380    0.81900    1.000
    H217     H        0.38770    0.01660    0.80910    1.000
    H218     H        0.36000    0.98160    0.83120    1.000
    H219     H        0.42250    0.98280    0.82900    1.000
    C203     C        0.49850    0.85390    0.78280    1.000
    H220     H        0.46140    0.84490    0.78490    1.000
    H221     H        0.50730    0.85420    0.76400    1.000
    H222     H        0.52010    0.82780    0.79180    1.000
    O67      O        0.60650    0.10930    0.77840    1.000
    H223     H        0.60400    0.13900    0.77100    1.000
    H224     H        0.57800    0.11000    0.78700    1.000
    O68      O        0.32060    0.96760    0.73528    1.000
    O69      O        0.17470    0.04110    0.69306    1.000
    O70      O        0.23880    0.98070    0.68950    1.000
    S69      S        0.13529    0.95026    0.64690    1.000
    S70      S        0.28258    0.09833    0.66663    1.000
    Zn13     Zn       0.24630    0.96021    0.72611    1.000
    Zn14     Zn       0.16168    0.05286    0.73109    1.000
    C204     C        0.70750    0.51510    0.18068    1.000
    C205     C        0.71170    0.52440    0.15150    1.000
    C206     C        0.68140    0.49550    0.13423    1.000
    C207     C        0.74700    0.56150    0.14272    1.000
    C208     C        0.67410    0.39120    0.14470    1.000
    H225     H        0.70310    0.39670    0.13240    1.000
    H226     H        0.65200    0.36230    0.13850    1.000
    H227     H        0.68810    0.38250    0.16210    1.000
    C209     C        0.74070    0.65550    0.16760    1.000
    H228     H        0.73360    0.66750    0.14970    1.000
    H229     H        0.75820    0.68360    0.17740    1.000
    H230     H        0.70760    0.64660    0.17630    1.000
    S71      S        0.83831    0.34427    0.27216    1.000
    S72      S        0.86944    0.21937    0.27525    1.000
    S73      S        0.81451    0.33200    0.27275    1.000
    S74      S        0.84549    0.20626    0.27615    1.000
    O71      O        0.71080    0.38610    0.26440    1.000
    O72      O        0.75180    0.38950    0.22549    1.000
    O73      O        0.68710    0.37220    0.26610    1.000
    O74      O        0.72860    0.37870    0.22780    1.000
    C210     C        0.73470    0.36660    0.24690    1.000
    C211     C        0.74880    0.30920    0.24838    1.000
    C212     C        0.79590    0.29390    0.25964    1.000
    C213     C        0.80894    0.24110    0.26093    1.000
    C214     C        0.72520    0.29640    0.24904    1.000
    C215     C        0.77240    0.28100    0.26030    1.000
    C216     C        0.78542    0.22820    0.26159    1.000
    C217     C        0.71130    0.35400    0.24772    1.000
    C218     C        0.88070    0.35400    0.24440    1.000
    H231     H        0.85960    0.35760    0.22840    1.000
    H232     H        0.90420    0.32380    0.24260    1.000
    H233     H        0.90150    0.38580    0.24700    1.000
    C219     C        0.84900    0.22100    0.30940    1.000
    H234     H        0.81780    0.19910    0.31160    1.000
    H235     H        0.84090    0.25710    0.31440    1.000
    H236     H        0.87740    0.20760    0.32050    1.000
    C220     C        0.86330    0.33360    0.24710    1.000
    H237     H        0.84620    0.32990    0.22990    1.000
    H238     H        0.88220    0.36700    0.24770    1.000
    H239     H        0.88810    0.30470    0.24960    1.000
    C221     C        0.82740    0.21500    0.31020    1.000
    H240     H        0.79070    0.20500    0.31260    1.000
    H241     H        0.84980    0.19320    0.32130    1.000
    H242     H        0.83190    0.25200    0.31510    1.000
    S75      S        0.02118    0.46710    0.29564    1.000
    S76      S        0.89312    0.45913    0.29517    1.000
    S77      S        0.88773    0.42888    0.29648    1.000
    S78      S        0.01070    0.41863    0.29681    1.000
    O75      O        0.08950    0.55520    0.26590    1.000
    O76      O        0.08940    0.49320    0.23470    1.000
    C222     C        0.06840    0.52530    0.25060    1.000
    C223     C        0.00928    0.52290    0.24972    1.000
    C224     C        0.98340    0.49660    0.26978    1.000
    C225     C        0.92900    0.49311    0.26957    1.000
    C226     C        0.90056    0.51600    0.24930    1.000
    C227     C        0.92650    0.45771    0.27076    1.000
    C228     C        0.98080    0.45423    0.27055    1.000
    C229     C        0.03460    0.52440    0.31640    1.000
    H243     H        0.05370    0.51330    0.33210    1.000
    H244     H        0.05580    0.54970    0.30650    1.000
    H245     H        0.00140    0.54080    0.32160    1.000
    C230     C        0.88270    0.51140    0.31910    1.000
    H246     H        0.86560    0.54120    0.31050    1.000
    H247     H        0.86030    0.49850    0.33340    1.000
    H248     H        0.91650    0.52250    0.32630    1.000
    C231     C        0.88970    0.48380    0.31900    1.000
    H249     H        0.88770    0.51660    0.30910    1.000
    H250     H        0.86000    0.48160    0.33120    1.000
    H251     H        0.92250    0.48280    0.32900    1.000
    C232     C        0.99850    0.35390    0.28280    1.000
    H252     H        0.96140    0.34490    0.28490    1.000
    H253     H        0.00730    0.35420    0.26400    1.000
    H254     H        0.02010    0.32780    0.29180    1.000
    O77      O        0.10650    0.60930    0.27840    1.000
    H255     H        0.10400    0.63900    0.27100    1.000
    H256     H        0.07800    0.61000    0.28700    1.000
    O78      O        0.82060    0.46760    0.23528    1.000
    O79      O        0.67470    0.54110    0.19306    1.000
    O80      O        0.73880    0.48070    0.18950    1.000
    S79      S        0.63529    0.45026    0.14690    1.000
    S80      S        0.78258    0.59833    0.16663    1.000
    Zn15     Zn       0.74630    0.46021    0.22611    1.000
    Zn16     Zn       0.66168    0.55286    0.23109    1.000
    C233     C        0.26510    0.95750    0.06932    1.000
    C234     C        0.27440    0.96170    0.09850    1.000
    C235     C        0.24550    0.93140    0.11577    1.000
    C236     C        0.31150    0.99700    0.10728    1.000
    C237     C        0.14120    0.92410    0.10530    1.000
    H257     H        0.14670    0.95310    0.11760    1.000
    H258     H        0.11230    0.90200    0.11150    1.000
    H259     H        0.13250    0.93810    0.08790    1.000
    C238     C        0.40550    0.99070    0.08240    1.000
    H260     H        0.41750    0.98360    0.10030    1.000
    H261     H        0.43360    0.00820    0.07260    1.000
    H262     H        0.39660    0.95760    0.07370    1.000
    S81      S        0.09427    0.08831    0.97784    1.000
    S82      S        0.96937    0.11944    0.97475    1.000
    S83      S        0.08200    0.06451    0.97725    1.000
    S84      S        0.95626    0.09549    0.97385    1.000
    O81      O        0.13610    0.96080    0.98560    1.000
    O82      O        0.13950    0.00180    0.02451    1.000
    O83      O        0.12220    0.93710    0.98390    1.000
    O84      O        0.12870    0.97860    0.02220    1.000
    C239     C        0.11660    0.98470    0.00310    1.000
    C240     C        0.05920    0.99880    0.00162    1.000
    C241     C        0.04390    0.04590    0.99036    1.000
    C242     C        0.99110    0.05894    0.98907    1.000
    C243     C        0.04640    0.97520    0.00096    1.000
    C244     C        0.03100    0.02240    0.98970    1.000
    C245     C        0.97820    0.03542    0.98841    1.000
    C246     C        0.10400    0.96130    0.00228    1.000
    C247     C        0.10400    0.13070    0.00560    1.000
    H263     H        0.10760    0.10960    0.02160    1.000
    H264     H        0.07380    0.15420    0.00740    1.000
    H265     H        0.13580    0.15150    0.00300    1.000
    C248     C        0.97100    0.09900    0.94060    1.000
    H266     H        0.94910    0.06780    0.93840    1.000
    H267     H        0.00710    0.09090    0.93560    1.000
    H268     H        0.95760    0.12740    0.92950    1.000
    C249     C        0.08360    0.11330    0.00290    1.000
    H269     H        0.07990    0.09620    0.02010    1.000
    H270     H        0.11700    0.13220    0.00230    1.000
    H271     H        0.05470    0.13810    0.00040    1.000
    C250     C        0.96500    0.07740    0.93980    1.000
    H272     H        0.95500    0.04070    0.93740    1.000
    H273     H        0.94320    0.09980    0.92870    1.000
    H274     H        0.00200    0.08190    0.93490    1.000
    S85      S        0.21710    0.27118    0.95436    1.000
    S86      S        0.20913    0.14312    0.95483    1.000
    S87      S        0.17888    0.13773    0.95352    1.000
    S88      S        0.16863    0.26070    0.95319    1.000
    O85      O        0.30520    0.33950    0.98410    1.000
    O86      O        0.24320    0.33940    0.01530    1.000
    C251     C        0.27530    0.31840    0.99940    1.000
    C252     C        0.27290    0.25928    0.00028    1.000
    C253     C        0.24660    0.23340    0.98022    1.000
    C254     C        0.24311    0.17900    0.98043    1.000
    C255     C        0.26600    0.15056    0.00070    1.000
    C256     C        0.20771    0.17650    0.97924    1.000
    C257     C        0.20423    0.23080    0.97945    1.000
    C258     C        0.27440    0.28460    0.93360    1.000
    H275     H        0.26330    0.30370    0.91790    1.000
    H276     H        0.29970    0.30580    0.94350    1.000
    H277     H        0.29080    0.25140    0.92840    1.000
    C259     C        0.26140    0.13270    0.93090    1.000
    H278     H        0.29120    0.11560    0.93950    1.000
    H279     H        0.24850    0.11030    0.91660    1.000
    H280     H        0.27250    0.16650    0.92370    1.000
    C260     C        0.23380    0.13970    0.93100    1.000
    H281     H        0.26660    0.13770    0.94090    1.000
    H282     H        0.23160    0.11000    0.91880    1.000
    H283     H        0.23280    0.17250    0.92100    1.000
    C261     C        0.10390    0.24850    0.96720    1.000
    H284     H        0.09490    0.21140    0.96510    1.000
    H285     H        0.10420    0.25730    0.98600    1.000
    H286     H        0.07780    0.27010    0.95820    1.000
    O87      O        0.35930    0.35650    0.97160    1.000
    H287     H        0.38900    0.35400    0.97900    1.000
    H288     H        0.36000    0.32800    0.96300    1.000
    O88      O        0.21760    0.07060    0.01472    1.000
    O89      O        0.29110    0.92470    0.05694    1.000
    O90      O        0.23070    0.98880    0.06050    1.000
    S89      S        0.20026    0.88529    0.10310    1.000
    S90      S        0.34833    0.03258    0.08337    1.000
    Zn17     Zn       0.21021    0.99630    0.02389    1.000
    Zn18     Zn       0.30286    0.91168    0.01891    1.000
    C262     C        0.76510    0.45750    0.56932    1.000
    C263     C        0.77440    0.46170    0.59850    1.000
    C264     C        0.74550    0.43140    0.61577    1.000
    C265     C        0.81150    0.49700    0.60728    1.000
    C266     C        0.64120    0.42410    0.60530    1.000
    H289     H        0.64670    0.45310    0.61760    1.000
    H290     H        0.61230    0.40200    0.61150    1.000
    H291     H        0.63250    0.43810    0.58790    1.000
    C267     C        0.90550    0.49070    0.58240    1.000
    H292     H        0.91750    0.48360    0.60030    1.000
    H293     H        0.93360    0.50820    0.57260    1.000
    H294     H        0.89660    0.45760    0.57370    1.000
    S91      S        0.59427    0.58831    0.47784    1.000
    S92      S        0.46937    0.61944    0.47475    1.000
    S93      S        0.58200    0.56451    0.47725    1.000
    S94      S        0.45626    0.59549    0.47385    1.000
    O91      O        0.63610    0.46080    0.48560    1.000
    O92      O        0.63950    0.50180    0.52451    1.000
    O93      O        0.62220    0.43710    0.48390    1.000
    O94      O        0.62870    0.47860    0.52220    1.000
    C268     C        0.61660    0.48470    0.50310    1.000
    C269     C        0.55920    0.49880    0.50162    1.000
    C270     C        0.54390    0.54590    0.49036    1.000
    C271     C        0.49110    0.55894    0.48907    1.000
    C272     C        0.54640    0.47520    0.50096    1.000
    C273     C        0.53100    0.52240    0.48970    1.000
    C274     C        0.47820    0.53542    0.48841    1.000
    C275     C        0.60400    0.46130    0.50228    1.000
    C276     C        0.60400    0.63070    0.50560    1.000
    H295     H        0.60760    0.60960    0.52160    1.000
    H296     H        0.57380    0.65420    0.50740    1.000
    H297     H        0.63580    0.65150    0.50300    1.000
    C277     C        0.47100    0.59900    0.44060    1.000
    H298     H        0.44910    0.56780    0.43840    1.000
    H299     H        0.50710    0.59090    0.43560    1.000
    H300     H        0.45760    0.62740    0.42950    1.000
    C278     C        0.58360    0.61330    0.50290    1.000
    H301     H        0.57990    0.59620    0.52010    1.000
    H302     H        0.61700    0.63220    0.50230    1.000
    H303     H        0.55470    0.63810    0.50040    1.000
    C279     C        0.46500    0.57740    0.43980    1.000
    H304     H        0.45500    0.54070    0.43740    1.000
    H305     H        0.44320    0.59980    0.42870    1.000
    H306     H        0.50200    0.58190    0.43490    1.000
    S95      S        0.71710    0.77118    0.45436    1.000
    S96      S        0.70913    0.64312    0.45483    1.000
    S97      S        0.67888    0.63773    0.45352    1.000
    S98      S        0.66863    0.76070    0.45319    1.000
    O95      O        0.80520    0.83950    0.48410    1.000
    O96      O        0.74320    0.83940    0.51530    1.000
    C280     C        0.77530    0.81840    0.49940    1.000
    C281     C        0.77290    0.75928    0.50028    1.000
    C282     C        0.74660    0.73340    0.48022    1.000
    C283     C        0.74311    0.67900    0.48043    1.000
    C284     C        0.76600    0.65056    0.50070    1.000
    C285     C        0.70771    0.67650    0.47924    1.000
    C286     C        0.70423    0.73080    0.47945    1.000
    C287     C        0.77440    0.78460    0.43360    1.000
    H307     H        0.76330    0.80370    0.41790    1.000
    H308     H        0.79970    0.80580    0.44350    1.000
    H309     H        0.79080    0.75140    0.42840    1.000
    C288     C        0.76140    0.63270    0.43090    1.000
    H310     H        0.79120    0.61560    0.43950    1.000
    H311     H        0.74850    0.61030    0.41660    1.000
    H312     H        0.77250    0.66650    0.42370    1.000
    C289     C        0.73380    0.63970    0.43100    1.000
    H313     H        0.76660    0.63770    0.44090    1.000
    H314     H        0.73160    0.61000    0.41880    1.000
    H315     H        0.73280    0.67250    0.42100    1.000
    C290     C        0.60390    0.74850    0.46720    1.000
    H316     H        0.59490    0.71140    0.46510    1.000
    H317     H        0.60420    0.75730    0.48600    1.000
    H318     H        0.57780    0.77010    0.45820    1.000
    O97      O        0.85930    0.85650    0.47160    1.000
    H319     H        0.88900    0.85400    0.47900    1.000
    H320     H        0.86000    0.82800    0.46300    1.000
    O98      O        0.71760    0.57060    0.51472    1.000
    O99      O        0.79110    0.42470    0.55694    1.000
    O100     O        0.73070    0.48880    0.56050    1.000
    S99      S        0.70026    0.38529    0.60310    1.000
    S100     S        0.84833    0.53258    0.58337    1.000
    Zn19     Zn       0.71021    0.49630    0.52389    1.000
    Zn20     Zn       0.80286    0.41168    0.51891    1.000
    C291     C        0.23490    0.04250    0.56932    1.000
    C292     C        0.22560    0.03830    0.59850    1.000
    C293     C        0.25450    0.06860    0.61577    1.000
    C294     C        0.18850    0.00300    0.60728    1.000
    C295     C        0.35880    0.07590    0.60530    1.000
    H321     H        0.35330    0.04690    0.61760    1.000
    H322     H        0.38770    0.09800    0.61150    1.000
    H323     H        0.36750    0.06190    0.58790    1.000
    C296     C        0.09450    0.00930    0.58240    1.000
    H324     H        0.08250    0.01640    0.60030    1.000
    H325     H        0.06640    0.99180    0.57260    1.000
    H326     H        0.10340    0.04240    0.57370    1.000
    S101     S        0.40573    0.91169    0.47784    1.000
    S102     S        0.53063    0.88056    0.47475    1.000
    S103     S        0.41800    0.93549    0.47725    1.000
    S104     S        0.54374    0.90451    0.47385    1.000
    O101     O        0.36390    0.03920    0.48560    1.000
    O102     O        0.36050    0.99820    0.52451    1.000
    O103     O        0.37780    0.06290    0.48390    1.000
    O104     O        0.37130    0.02140    0.52220    1.000
    C297     C        0.38340    0.01530    0.50310    1.000
    C298     C        0.44080    0.00120    0.50162    1.000
    C299     C        0.45610    0.95410    0.49036    1.000
    C300     C        0.50890    0.94106    0.48907    1.000
    C301     C        0.45360    0.02480    0.50096    1.000
    C302     C        0.46900    0.97760    0.48970    1.000
    C303     C        0.52180    0.96458    0.48841    1.000
    C304     C        0.39600    0.03870    0.50228    1.000
    C305     C        0.39600    0.86930    0.50560    1.000
    H327     H        0.39240    0.89040    0.52160    1.000
    H328     H        0.42620    0.84580    0.50740    1.000
    H329     H        0.36420    0.84850    0.50300    1.000
    C306     C        0.52900    0.90100    0.44060    1.000
    H330     H        0.55090    0.93220    0.43840    1.000
    H331     H        0.49290    0.90910    0.43560    1.000
    H332     H        0.54240    0.87260    0.42950    1.000
    C307     C        0.41640    0.88670    0.50290    1.000
    H333     H        0.42010    0.90380    0.52010    1.000
    H334     H        0.38300    0.86780    0.50230    1.000
    H335     H        0.44530    0.86190    0.50040    1.000
    C308     C        0.53500    0.92260    0.43980    1.000
    H336     H        0.54500    0.95930    0.43740    1.000
    H337     H        0.55680    0.90020    0.42870    1.000
    H338     H        0.49800    0.91810    0.43490    1.000
    S105     S        0.28290    0.72882    0.45436    1.000
    S106     S        0.29087    0.85688    0.45483    1.000
    S107     S        0.32112    0.86227    0.45352    1.000
    S108     S        0.33137    0.73930    0.45319    1.000
    O105     O        0.19480    0.66050    0.48410    1.000
    O106     O        0.25680    0.66060    0.51530    1.000
    C309     C        0.22470    0.68160    0.49940    1.000
    C310     C        0.22710    0.74072    0.50028    1.000
    C311     C        0.25340    0.76660    0.48022    1.000
    C312     C        0.25689    0.82100    0.48043    1.000
    C313     C        0.23400    0.84944    0.50070    1.000
    C314     C        0.29229    0.82350    0.47924    1.000
    C315     C        0.29577    0.76920    0.47945    1.000
    C316     C        0.22560    0.71540    0.43360    1.000
    H339     H        0.23670    0.69630    0.41790    1.000
    H340     H        0.20030    0.69420    0.44350    1.000
    H341     H        0.20920    0.74860    0.42840    1.000
    C317     C        0.23860    0.86730    0.43090    1.000
    H342     H        0.20880    0.88440    0.43950    1.000
    H343     H        0.25150    0.88970    0.41660    1.000
    H344     H        0.22750    0.83350    0.42370    1.000
    C318     C        0.26620    0.86030    0.43100    1.000
    H345     H        0.23340    0.86230    0.44090    1.000
    H346     H        0.26840    0.89000    0.41880    1.000
    H347     H        0.26720    0.82750    0.42100    1.000
    C319     C        0.39610    0.75150    0.46720    1.000
    H348     H        0.40510    0.78860    0.46510    1.000
    H349     H        0.39580    0.74270    0.48600    1.000
    H350     H        0.42220    0.72990    0.45820    1.000
    O107     O        0.14070    0.64350    0.47160    1.000
    H351     H        0.11100    0.64600    0.47900    1.000
    H352     H        0.14000    0.67200    0.46300    1.000
    O108     O        0.28240    0.92940    0.51472    1.000
    O109     O        0.20890    0.07530    0.55694    1.000
    O110     O        0.26930    0.01120    0.56050    1.000
    S109     S        0.29974    0.11471    0.60310    1.000
    S110     S        0.15167    0.96742    0.58337    1.000
    Zn21     Zn       0.28979    0.00370    0.52389    1.000
    Zn22     Zn       0.19714    0.08832    0.51891    1.000
    C320     C        0.73490    0.54250    0.06932    1.000
    C321     C        0.72560    0.53830    0.09850    1.000
    C322     C        0.75450    0.56860    0.11577    1.000
    C323     C        0.68850    0.50300    0.10728    1.000
    C324     C        0.85880    0.57590    0.10530    1.000
    H353     H        0.85330    0.54690    0.11760    1.000
    H354     H        0.88770    0.59800    0.11150    1.000
    H355     H        0.86750    0.56190    0.08790    1.000
    C325     C        0.59450    0.50930    0.08240    1.000
    H356     H        0.58250    0.51640    0.10030    1.000
    H357     H        0.56640    0.49180    0.07260    1.000
    H358     H        0.60340    0.54240    0.07370    1.000
    S111     S        0.90573    0.41169    0.97784    1.000
    S112     S        0.03063    0.38056    0.97475    1.000
    S113     S        0.91800    0.43549    0.97725    1.000
    S114     S        0.04374    0.40451    0.97385    1.000
    O111     O        0.86390    0.53920    0.98560    1.000
    O112     O        0.86050    0.49820    0.02451    1.000
    O113     O        0.87780    0.56290    0.98390    1.000
    O114     O        0.87130    0.52140    0.02220    1.000
    C326     C        0.88340    0.51530    0.00310    1.000
    C327     C        0.94080    0.50120    0.00162    1.000
    C328     C        0.95610    0.45410    0.99036    1.000
    C329     C        0.00890    0.44106    0.98907    1.000
    C330     C        0.95360    0.52480    0.00096    1.000
    C331     C        0.96900    0.47760    0.98970    1.000
    C332     C        0.02180    0.46458    0.98841    1.000
    C333     C        0.89600    0.53870    0.00228    1.000
    C334     C        0.89600    0.36930    0.00560    1.000
    H359     H        0.89240    0.39040    0.02160    1.000
    H360     H        0.92620    0.34580    0.00740    1.000
    H361     H        0.86420    0.34850    0.00300    1.000
    C335     C        0.02900    0.40100    0.94060    1.000
    H362     H        0.05090    0.43220    0.93840    1.000
    H363     H        0.99290    0.40910    0.93560    1.000
    H364     H        0.04240    0.37260    0.92950    1.000
    C336     C        0.91640    0.38670    0.00290    1.000
    H365     H        0.92010    0.40380    0.02010    1.000
    H366     H        0.88300    0.36780    0.00230    1.000
    H367     H        0.94530    0.36190    0.00040    1.000
    C337     C        0.03500    0.42260    0.93980    1.000
    H368     H        0.04500    0.45930    0.93740    1.000
    H369     H        0.05680    0.40020    0.92870    1.000
    H370     H        0.99800    0.41810    0.93490    1.000
    S115     S        0.78290    0.22882    0.95436    1.000
    S116     S        0.79087    0.35688    0.95483    1.000
    S117     S        0.82112    0.36227    0.95352    1.000
    S118     S        0.83137    0.23930    0.95319    1.000
    O115     O        0.69480    0.16050    0.98410    1.000
    O116     O        0.75680    0.16060    0.01530    1.000
    C338     C        0.72470    0.18160    0.99940    1.000
    C339     C        0.72710    0.24072    0.00028    1.000
    C340     C        0.75340    0.26660    0.98022    1.000
    C341     C        0.75689    0.32100    0.98043    1.000
    C342     C        0.73400    0.34944    0.00070    1.000
    C343     C        0.79229    0.32350    0.97924    1.000
    C344     C        0.79577    0.26920    0.97945    1.000
    C345     C        0.72560    0.21540    0.93360    1.000
    H371     H        0.73670    0.19630    0.91790    1.000
    H372     H        0.70030    0.19420    0.94350    1.000
    H373     H        0.70920    0.24860    0.92840    1.000
    C346     C        0.73860    0.36730    0.93090    1.000
    H374     H        0.70880    0.38440    0.93950    1.000
    H375     H        0.75150    0.38970    0.91660    1.000
    H376     H        0.72750    0.33350    0.92370    1.000
    C347     C        0.76620    0.36030    0.93100    1.000
    H377     H        0.73340    0.36230    0.94090    1.000
    H378     H        0.76840    0.39000    0.91880    1.000
    H379     H        0.76720    0.32750    0.92100    1.000
    C348     C        0.89610    0.25150    0.96720    1.000
    H380     H        0.90510    0.28860    0.96510    1.000
    H381     H        0.89580    0.24270    0.98600    1.000
    H382     H        0.92220    0.22990    0.95820    1.000
    O117     O        0.64070    0.14350    0.97160    1.000
    H383     H        0.61100    0.14600    0.97900    1.000
    H384     H        0.64000    0.17200    0.96300    1.000
    O118     O        0.78240    0.42940    0.01472    1.000
    O119     O        0.70890    0.57530    0.05694    1.000
    O120     O        0.76930    0.51120    0.06050    1.000
    S119     S        0.79974    0.61471    0.10310    1.000
    S120     S        0.65167    0.46742    0.08337    1.000
    Zn23     Zn       0.78979    0.50370    0.02389    1.000
    Zn24     Zn       0.69714    0.58832    0.01891    1.000
    C349     C        0.20750    0.98490    0.81932    1.000
    C350     C        0.21170    0.97560    0.84850    1.000
    C351     C        0.18140    0.00450    0.86577    1.000
    C352     C        0.24700    0.93850    0.85728    1.000
    C353     C        0.17410    0.10880    0.85530    1.000
    H385     H        0.20310    0.10330    0.86760    1.000
    H386     H        0.15200    0.13770    0.86150    1.000
    H387     H        0.18810    0.11750    0.83790    1.000
    C354     C        0.24070    0.84450    0.83240    1.000
    H388     H        0.23360    0.83250    0.85030    1.000
    H389     H        0.25820    0.81640    0.82260    1.000
    H390     H        0.20760    0.85340    0.82370    1.000
    S121     S        0.33831    0.15573    0.72784    1.000
    S122     S        0.36944    0.28063    0.72475    1.000
    S123     S        0.31451    0.16800    0.72725    1.000
    S124     S        0.34549    0.29374    0.72385    1.000
    O121     O        0.21080    0.11390    0.73560    1.000
    O122     O        0.25180    0.11050    0.77451    1.000
    O123     O        0.18710    0.12780    0.73390    1.000
    O124     O        0.22860    0.12130    0.77220    1.000
    C355     C        0.23470    0.13340    0.75310    1.000
    C356     C        0.24880    0.19080    0.75162    1.000
    C357     C        0.29590    0.20610    0.74036    1.000
    C358     C        0.30894    0.25890    0.73907    1.000
    C359     C        0.22520    0.20360    0.75096    1.000
    C360     C        0.27240    0.21900    0.73970    1.000
    C361     C        0.28542    0.27180    0.73841    1.000
    C362     C        0.21130    0.14600    0.75228    1.000
    C363     C        0.38070    0.14600    0.75560    1.000
    H391     H        0.35960    0.14240    0.77160    1.000
    H392     H        0.40420    0.17620    0.75740    1.000
    H393     H        0.40150    0.11420    0.75300    1.000
    C364     C        0.34900    0.27900    0.69060    1.000
    H394     H        0.31780    0.30090    0.68840    1.000
    H395     H        0.34090    0.24290    0.68560    1.000
    H396     H        0.37740    0.29240    0.67950    1.000
    C365     C        0.36330    0.16640    0.75290    1.000
    H397     H        0.34620    0.17010    0.77010    1.000
    H398     H        0.38220    0.13300    0.75230    1.000
    H399     H        0.38810    0.19530    0.75040    1.000
    C366     C        0.32740    0.28500    0.68980    1.000
    H400     H        0.29070    0.29500    0.68740    1.000
    H401     H        0.34980    0.30680    0.67870    1.000
    H402     H        0.33190    0.24800    0.68490    1.000
    S125     S        0.52118    0.03290    0.70436    1.000
    S126     S        0.39312    0.04087    0.70483    1.000
    S127     S        0.38773    0.07112    0.70352    1.000
    S128     S        0.51070    0.08137    0.70319    1.000
    O125     O        0.58950    0.94480    0.73410    1.000
    O126     O        0.58940    0.00680    0.76530    1.000
    C367     C        0.56840    0.97470    0.74940    1.000
    C368     C        0.50928    0.97710    0.75028    1.000
    C369     C        0.48340    0.00340    0.73022    1.000
    C370     C        0.42900    0.00689    0.73043    1.000
    C371     C        0.40056    0.98400    0.75070    1.000
    C372     C        0.42650    0.04229    0.72924    1.000
    C373     C        0.48080    0.04577    0.72945    1.000
    C374     C        0.53460    0.97560    0.68360    1.000
    H403     H        0.55370    0.98670    0.66790    1.000
    H404     H        0.55580    0.95030    0.69350    1.000
    H405     H        0.50140    0.95920    0.67840    1.000
    C375     C        0.38270    0.98860    0.68090    1.000
    H406     H        0.36560    0.95880    0.68950    1.000
    H407     H        0.36030    0.00150    0.66660    1.000
    H408     H        0.41650    0.97750    0.67370    1.000
    C376     C        0.38970    0.01620    0.68100    1.000
    H409     H        0.38770    0.98340    0.69090    1.000
    H410     H        0.36000    0.01840    0.66880    1.000
    H411     H        0.42250    0.01720    0.67100    1.000
    C377     C        0.49850    0.14610    0.71720    1.000
    H412     H        0.46140    0.15510    0.71510    1.000
    H413     H        0.50730    0.14580    0.73600    1.000
    H414     H        0.52010    0.17220    0.70820    1.000
    O127     O        0.60650    0.89070    0.72160    1.000
    H415     H        0.60400    0.86100    0.72900    1.000
    H416     H        0.57800    0.89000    0.71300    1.000
    O128     O        0.32060    0.03240    0.76472    1.000
    O129     O        0.17470    0.95890    0.80694    1.000
    O130     O        0.23880    0.01930    0.81050    1.000
    S129     S        0.13529    0.04974    0.85310    1.000
    S130     S        0.28258    0.90167    0.83337    1.000
    Zn25     Zn       0.24630    0.03979    0.77389    1.000
    Zn26     Zn       0.16168    0.94714    0.76891    1.000
    C378     C        0.70750    0.48490    0.31932    1.000
    C379     C        0.71170    0.47560    0.34850    1.000
    C380     C        0.68140    0.50450    0.36577    1.000
    C381     C        0.74700    0.43850    0.35728    1.000
    C382     C        0.67410    0.60880    0.35530    1.000
    H417     H        0.70310    0.60330    0.36760    1.000
    H418     H        0.65200    0.63770    0.36150    1.000
    H419     H        0.68810    0.61750    0.33790    1.000
    C383     C        0.74070    0.34450    0.33240    1.000
    H420     H        0.73360    0.33250    0.35030    1.000
    H421     H        0.75820    0.31640    0.32260    1.000
    H422     H        0.70760    0.35340    0.32370    1.000
    S131     S        0.83831    0.65573    0.22784    1.000
    S132     S        0.86944    0.78063    0.22475    1.000
    S133     S        0.81451    0.66800    0.22725    1.000
    S134     S        0.84549    0.79374    0.22385    1.000
    O131     O        0.71080    0.61390    0.23560    1.000
    O132     O        0.75180    0.61050    0.27451    1.000
    O133     O        0.68710    0.62780    0.23390    1.000
    O134     O        0.72860    0.62130    0.27220    1.000
    C384     C        0.73470    0.63340    0.25310    1.000
    C385     C        0.74880    0.69080    0.25162    1.000
    C386     C        0.79590    0.70610    0.24036    1.000
    C387     C        0.80894    0.75890    0.23907    1.000
    C388     C        0.72520    0.70360    0.25096    1.000
    C389     C        0.77240    0.71900    0.23970    1.000
    C390     C        0.78542    0.77180    0.23841    1.000
    C391     C        0.71130    0.64600    0.25228    1.000
    C392     C        0.88070    0.64600    0.25560    1.000
    H423     H        0.85960    0.64240    0.27160    1.000
    H424     H        0.90420    0.67620    0.25740    1.000
    H425     H        0.90150    0.61420    0.25300    1.000
    C393     C        0.84900    0.77900    0.19060    1.000
    H426     H        0.81780    0.80090    0.18840    1.000
    H427     H        0.84090    0.74290    0.18560    1.000
    H428     H        0.87740    0.79240    0.17950    1.000
    C394     C        0.86330    0.66640    0.25290    1.000
    H429     H        0.84620    0.67010    0.27010    1.000
    H430     H        0.88220    0.63300    0.25230    1.000
    H431     H        0.88810    0.69530    0.25040    1.000
    C395     C        0.82740    0.78500    0.18980    1.000
    H432     H        0.79070    0.79500    0.18740    1.000
    H433     H        0.84980    0.80680    0.17870    1.000
    H434     H        0.83190    0.74800    0.18490    1.000
    S135     S        0.02118    0.53290    0.20436    1.000
    S136     S        0.89312    0.54087    0.20483    1.000
    S137     S        0.88773    0.57112    0.20352    1.000
    S138     S        0.01070    0.58137    0.20319    1.000
    O135     O        0.08950    0.44480    0.23410    1.000
    O136     O        0.08940    0.50680    0.26530    1.000
    C396     C        0.06840    0.47470    0.24940    1.000
    C397     C        0.00928    0.47710    0.25028    1.000
    C398     C        0.98340    0.50340    0.23022    1.000
    C399     C        0.92900    0.50689    0.23043    1.000
    C400     C        0.90056    0.48400    0.25070    1.000
    C401     C        0.92650    0.54229    0.22924    1.000
    C402     C        0.98080    0.54577    0.22945    1.000
    C403     C        0.03460    0.47560    0.18360    1.000
    H435     H        0.05370    0.48670    0.16790    1.000
    H436     H        0.05580    0.45030    0.19350    1.000
    H437     H        0.00140    0.45920    0.17840    1.000
    C404     C        0.88270    0.48860    0.18090    1.000
    H438     H        0.86560    0.45880    0.18950    1.000
    H439     H        0.86030    0.50150    0.16660    1.000
    H440     H        0.91650    0.47750    0.17370    1.000
    C405     C        0.88970    0.51620    0.18100    1.000
    H441     H        0.88770    0.48340    0.19090    1.000
    H442     H        0.86000    0.51840    0.16880    1.000
    H443     H        0.92250    0.51720    0.17100    1.000
    C406     C        0.99850    0.64610    0.21720    1.000
    H444     H        0.96140    0.65510    0.21510    1.000
    H445     H        0.00730    0.64580    0.23600    1.000
    H446     H        0.02010    0.67220    0.20820    1.000
    O137     O        0.10650    0.39070    0.22160    1.000
    H447     H        0.10400    0.36100    0.22900    1.000
    H448     H        0.07800    0.39000    0.21300    1.000
    O138     O        0.82060    0.53240    0.26472    1.000
    O139     O        0.67470    0.45890    0.30694    1.000
    O140     O        0.73880    0.51930    0.31050    1.000
    S139     S        0.63529    0.54974    0.35310    1.000
    S140     S        0.78258    0.40167    0.33337    1.000
    Zn27     Zn       0.74630    0.53979    0.27389    1.000
    Zn28     Zn       0.66168    0.44714    0.26891    1.000
    C407     C        0.29250    0.01510    0.31932    1.000
    C408     C        0.28830    0.02440    0.34850    1.000
    C409     C        0.31860    0.99550    0.36577    1.000
    C410     C        0.25300    0.06150    0.35728    1.000
    C411     C        0.32590    0.89120    0.35530    1.000
    H449     H        0.29690    0.89670    0.36760    1.000
    H450     H        0.34800    0.86230    0.36150    1.000
    H451     H        0.31190    0.88250    0.33790    1.000
    C412     C        0.25930    0.15550    0.33240    1.000
    H452     H        0.26640    0.16750    0.35030    1.000
    H453     H        0.24180    0.18360    0.32260    1.000
    H454     H        0.29240    0.14660    0.32370    1.000
    S141     S        0.16169    0.84427    0.22784    1.000
    S142     S        0.13056    0.71937    0.22475    1.000
    S143     S        0.18549    0.83200    0.22725    1.000
    S144     S        0.15451    0.70626    0.22385    1.000
    O141     O        0.28920    0.88610    0.23560    1.000
    O142     O        0.24820    0.88950    0.27451    1.000
    O143     O        0.31290    0.87220    0.23390    1.000
    O144     O        0.27140    0.87870    0.27220    1.000
    C413     C        0.26530    0.86660    0.25310    1.000
    C414     C        0.25120    0.80920    0.25162    1.000
    C415     C        0.20410    0.79390    0.24036    1.000
    C416     C        0.19106    0.74110    0.23907    1.000
    C417     C        0.27480    0.79640    0.25096    1.000
    C418     C        0.22760    0.78100    0.23970    1.000
    C419     C        0.21458    0.72820    0.23841    1.000
    C420     C        0.28870    0.85400    0.25228    1.000
    C421     C        0.11930    0.85400    0.25560    1.000
    H455     H        0.14040    0.85760    0.27160    1.000
    H456     H        0.09580    0.82380    0.25740    1.000
    H457     H        0.09850    0.88580    0.25300    1.000
    C422     C        0.15100    0.72100    0.19060    1.000
    H458     H        0.18220    0.69910    0.18840    1.000
    H459     H        0.15910    0.75710    0.18560    1.000
    H460     H        0.12260    0.70760    0.17950    1.000
    C423     C        0.13670    0.83360    0.25290    1.000
    H461     H        0.15380    0.82990    0.27010    1.000
    H462     H        0.11780    0.86700    0.25230    1.000
    H463     H        0.11190    0.80470    0.25040    1.000
    C424     C        0.17260    0.71500    0.18980    1.000
    H464     H        0.20930    0.70500    0.18740    1.000
    H465     H        0.15020    0.69320    0.17870    1.000
    H466     H        0.16810    0.75200    0.18490    1.000
    S145     S        0.97882    0.96710    0.20436    1.000
    S146     S        0.10688    0.95913    0.20483    1.000
    S147     S        0.11227    0.92888    0.20352    1.000
    S148     S        0.98930    0.91863    0.20319    1.000
    O145     O        0.91050    0.05520    0.23410    1.000
    O146     O        0.91060    0.99320    0.26530    1.000
    C425     C        0.93160    0.02530    0.24940    1.000
    C426     C        0.99072    0.02290    0.25028    1.000
    C427     C        0.01660    0.99660    0.23022    1.000
    C428     C        0.07100    0.99311    0.23043    1.000
    C429     C        0.09944    0.01600    0.25070    1.000
    C430     C        0.07350    0.95771    0.22924    1.000
    C431     C        0.01920    0.95423    0.22945    1.000
    C432     C        0.96540    0.02440    0.18360    1.000
    H467     H        0.94630    0.01330    0.16790    1.000
    H468     H        0.94420    0.04970    0.19350    1.000
    H469     H        0.99860    0.04080    0.17840    1.000
    C433     C        0.11730    0.01140    0.18090    1.000
    H470     H        0.13440    0.04120    0.18950    1.000
    H471     H        0.13970    0.99850    0.16660    1.000
    H472     H        0.08350    0.02250    0.17370    1.000
    C434     C        0.11030    0.98380    0.18100    1.000
    H473     H        0.11230    0.01660    0.19090    1.000
    H474     H        0.14000    0.98160    0.16880    1.000
    H475     H        0.07750    0.98280    0.17100    1.000
    C435     C        0.00150    0.85390    0.21720    1.000
    H476     H        0.03860    0.84490    0.21510    1.000
    H477     H        0.99270    0.85420    0.23600    1.000
    H478     H        0.97990    0.82780    0.20820    1.000
    O147     O        0.89350    0.10930    0.22160    1.000
    H479     H        0.89600    0.13900    0.22900    1.000
    H480     H        0.92200    0.11000    0.21300    1.000
    O148     O        0.17940    0.96760    0.26472    1.000
    O149     O        0.32530    0.04110    0.30694    1.000
    O150     O        0.26120    0.98070    0.31050    1.000
    S149     S        0.36471    0.95026    0.35310    1.000
    S150     S        0.21742    0.09833    0.33337    1.000
    Zn29     Zn       0.25370    0.96021    0.27389    1.000
    Zn30     Zn       0.33832    0.05286    0.26891    1.000
    C436     C        0.79250    0.51510    0.81932    1.000
    C437     C        0.78830    0.52440    0.84850    1.000
    C438     C        0.81860    0.49550    0.86577    1.000
    C439     C        0.75300    0.56150    0.85728    1.000
    C440     C        0.82590    0.39120    0.85530    1.000
    H481     H        0.79690    0.39670    0.86760    1.000
    H482     H        0.84800    0.36230    0.86150    1.000
    H483     H        0.81190    0.38250    0.83790    1.000
    C441     C        0.75930    0.65550    0.83240    1.000
    H484     H        0.76640    0.66750    0.85030    1.000
    H485     H        0.74180    0.68360    0.82260    1.000
    H486     H        0.79240    0.64660    0.82370    1.000
    S151     S        0.66169    0.34427    0.72784    1.000
    S152     S        0.63056    0.21937    0.72475    1.000
    S153     S        0.68549    0.33200    0.72725    1.000
    S154     S        0.65451    0.20626    0.72385    1.000
    O151     O        0.78920    0.38610    0.73560    1.000
    O152     O        0.74820    0.38950    0.77451    1.000
    O153     O        0.81290    0.37220    0.73390    1.000
    O154     O        0.77140    0.37870    0.77220    1.000
    C442     C        0.76530    0.36660    0.75310    1.000
    C443     C        0.75120    0.30920    0.75162    1.000
    C444     C        0.70410    0.29390    0.74036    1.000
    C445     C        0.69106    0.24110    0.73907    1.000
    C446     C        0.77480    0.29640    0.75096    1.000
    C447     C        0.72760    0.28100    0.73970    1.000
    C448     C        0.71458    0.22820    0.73841    1.000
    C449     C        0.78870    0.35400    0.75228    1.000
    C450     C        0.61930    0.35400    0.75560    1.000
    H487     H        0.64040    0.35760    0.77160    1.000
    H488     H        0.59580    0.32380    0.75740    1.000
    H489     H        0.59850    0.38580    0.75300    1.000
    C451     C        0.65100    0.22100    0.69060    1.000
    H490     H        0.68220    0.19910    0.68840    1.000
    H491     H        0.65910    0.25710    0.68560    1.000
    H492     H        0.62260    0.20760    0.67950    1.000
    C452     C        0.63670    0.33360    0.75290    1.000
    H493     H        0.65380    0.32990    0.77010    1.000
    H494     H        0.61780    0.36700    0.75230    1.000
    H495     H        0.61190    0.30470    0.75040    1.000
    C453     C        0.67260    0.21500    0.68980    1.000
    H496     H        0.70930    0.20500    0.68740    1.000
    H497     H        0.65020    0.19320    0.67870    1.000
    H498     H        0.66810    0.25200    0.68490    1.000
    S155     S        0.47882    0.46710    0.70436    1.000
    S156     S        0.60688    0.45913    0.70483    1.000
    S157     S        0.61227    0.42888    0.70352    1.000
    S158     S        0.48930    0.41863    0.70319    1.000
    O155     O        0.41050    0.55520    0.73410    1.000
    O156     O        0.41060    0.49320    0.76530    1.000
    C454     C        0.43160    0.52530    0.74940    1.000
    C455     C        0.49072    0.52290    0.75028    1.000
    C456     C        0.51660    0.49660    0.73022    1.000
    C457     C        0.57100    0.49311    0.73043    1.000
    C458     C        0.59944    0.51600    0.75070    1.000
    C459     C        0.57350    0.45771    0.72924    1.000
    C460     C        0.51920    0.45423    0.72945    1.000
    C461     C        0.46540    0.52440    0.68360    1.000
    H499     H        0.44630    0.51330    0.66790    1.000
    H500     H        0.44420    0.54970    0.69350    1.000
    H501     H        0.49860    0.54080    0.67840    1.000
    C462     C        0.61730    0.51140    0.68090    1.000
    H502     H        0.63440    0.54120    0.68950    1.000
    H503     H        0.63970    0.49850    0.66660    1.000
    H504     H        0.58350    0.52250    0.67370    1.000
    C463     C        0.61030    0.48380    0.68100    1.000
    H505     H        0.61230    0.51660    0.69090    1.000
    H506     H        0.64000    0.48160    0.66880    1.000
    H507     H        0.57750    0.48280    0.67100    1.000
    C464     C        0.50150    0.35390    0.71720    1.000
    H508     H        0.53860    0.34490    0.71510    1.000
    H509     H        0.49270    0.35420    0.73600    1.000
    H510     H        0.47990    0.32780    0.70820    1.000
    O157     O        0.39350    0.60930    0.72160    1.000
    H511     H        0.39600    0.63900    0.72900    1.000
    H512     H        0.42200    0.61000    0.71300    1.000
    O158     O        0.67940    0.46760    0.76472    1.000
    O159     O        0.82530    0.54110    0.80694    1.000
    O160     O        0.76120    0.48070    0.81050    1.000
    S159     S        0.86471    0.45026    0.85310    1.000
    S160     S        0.71742    0.59833    0.83337    1.000
    Zn31     Zn       0.75370    0.46021    0.77389    1.000
    Zn32     Zn       0.83832    0.55286    0.76891    1.000
    C465     C        0.76510    0.04250    0.06932    1.000
    C466     C        0.77440    0.03830    0.09850    1.000
    C467     C        0.74550    0.06860    0.11577    1.000
    C468     C        0.81150    0.00300    0.10728    1.000
    C469     C        0.64120    0.07590    0.10530    1.000
    H513     H        0.64670    0.04690    0.11760    1.000
    H514     H        0.61230    0.09800    0.11150    1.000
    H515     H        0.63250    0.06190    0.08790    1.000
    C470     C        0.90550    0.00930    0.08240    1.000
    H516     H        0.91750    0.01640    0.10030    1.000
    H517     H        0.93360    0.99180    0.07260    1.000
    H518     H        0.89660    0.04240    0.07370    1.000
    S161     S        0.59427    0.91169    0.97784    1.000
    S162     S        0.46937    0.88056    0.97475    1.000
    S163     S        0.58200    0.93549    0.97725    1.000
    S164     S        0.45626    0.90451    0.97385    1.000
    O161     O        0.63610    0.03920    0.98560    1.000
    O162     O        0.63950    0.99820    0.02451    1.000
    O163     O        0.62220    0.06290    0.98390    1.000
    O164     O        0.62870    0.02140    0.02220    1.000
    C471     C        0.61660    0.01530    0.00310    1.000
    C472     C        0.55920    0.00120    0.00162    1.000
    C473     C        0.54390    0.95410    0.99036    1.000
    C474     C        0.49110    0.94106    0.98907    1.000
    C475     C        0.54640    0.02480    0.00096    1.000
    C476     C        0.53100    0.97760    0.98970    1.000
    C477     C        0.47820    0.96458    0.98841    1.000
    C478     C        0.60400    0.03870    0.00228    1.000
    C479     C        0.60400    0.86930    0.00560    1.000
    H519     H        0.60760    0.89040    0.02160    1.000
    H520     H        0.57380    0.84580    0.00740    1.000
    H521     H        0.63580    0.84850    0.00300    1.000
    C480     C        0.47100    0.90100    0.94060    1.000
    H522     H        0.44910    0.93220    0.93840    1.000
    H523     H        0.50710    0.90910    0.93560    1.000
    H524     H        0.45760    0.87260    0.92950    1.000
    C481     C        0.58360    0.88670    0.00290    1.000
    H525     H        0.57990    0.90380    0.02010    1.000
    H526     H        0.61700    0.86780    0.00230    1.000
    H527     H        0.55470    0.86190    0.00040    1.000
    C482     C        0.46500    0.92260    0.93980    1.000
    H528     H        0.45500    0.95930    0.93740    1.000
    H529     H        0.44320    0.90020    0.92870    1.000
    H530     H        0.50200    0.91810    0.93490    1.000
    S165     S        0.71710    0.72882    0.95436    1.000
    S166     S        0.70913    0.85688    0.95483    1.000
    S167     S        0.67888    0.86227    0.95352    1.000
    S168     S        0.66863    0.73930    0.95319    1.000
    O165     O        0.80520    0.66050    0.98410    1.000
    O166     O        0.74320    0.66060    0.01530    1.000
    C483     C        0.77530    0.68160    0.99940    1.000
    C484     C        0.77290    0.74072    0.00028    1.000
    C485     C        0.74660    0.76660    0.98022    1.000
    C486     C        0.74311    0.82100    0.98043    1.000
    C487     C        0.76600    0.84944    0.00070    1.000
    C488     C        0.70771    0.82350    0.97924    1.000
    C489     C        0.70423    0.76920    0.97945    1.000
    C490     C        0.77440    0.71540    0.93360    1.000
    H531     H        0.76330    0.69630    0.91790    1.000
    H532     H        0.79970    0.69420    0.94350    1.000
    H533     H        0.79080    0.74860    0.92840    1.000
    C491     C        0.76140    0.86730    0.93090    1.000
    H534     H        0.79120    0.88440    0.93950    1.000
    H535     H        0.74850    0.88970    0.91660    1.000
    H536     H        0.77250    0.83350    0.92370    1.000
    C492     C        0.73380    0.86030    0.93100    1.000
    H537     H        0.76660    0.86230    0.94090    1.000
    H538     H        0.73160    0.89000    0.91880    1.000
    H539     H        0.73280    0.82750    0.92100    1.000
    C493     C        0.60390    0.75150    0.96720    1.000
    H540     H        0.59490    0.78860    0.96510    1.000
    H541     H        0.60420    0.74270    0.98600    1.000
    H542     H        0.57780    0.72990    0.95820    1.000
    O167     O        0.85930    0.64350    0.97160    1.000
    H543     H        0.88900    0.64600    0.97900    1.000
    H544     H        0.86000    0.67200    0.96300    1.000
    O168     O        0.71760    0.92940    0.01472    1.000
    O169     O        0.79110    0.07530    0.05694    1.000
    O170     O        0.73070    0.01120    0.06050    1.000
    S169     S        0.70026    0.11471    0.10310    1.000
    S170     S        0.84833    0.96742    0.08337    1.000
    Zn33     Zn       0.71021    0.00370    0.02389    1.000
    Zn34     Zn       0.80286    0.08832    0.01891    1.000
    C494     C        0.26510    0.54250    0.56932    1.000
    C495     C        0.27440    0.53830    0.59850    1.000
    C496     C        0.24550    0.56860    0.61577    1.000
    C497     C        0.31150    0.50300    0.60728    1.000
    C498     C        0.14120    0.57590    0.60530    1.000
    H545     H        0.14670    0.54690    0.61760    1.000
    H546     H        0.11230    0.59800    0.61150    1.000
    H547     H        0.13250    0.56190    0.58790    1.000
    C499     C        0.40550    0.50930    0.58240    1.000
    H548     H        0.41750    0.51640    0.60030    1.000
    H549     H        0.43360    0.49180    0.57260    1.000
    H550     H        0.39660    0.54240    0.57370    1.000
    S171     S        0.09427    0.41169    0.47784    1.000
    S172     S        0.96937    0.38056    0.47475    1.000
    S173     S        0.08200    0.43549    0.47725    1.000
    S174     S        0.95626    0.40451    0.47385    1.000
    O171     O        0.13610    0.53920    0.48560    1.000
    O172     O        0.13950    0.49820    0.52451    1.000
    O173     O        0.12220    0.56290    0.48390    1.000
    O174     O        0.12870    0.52140    0.52220    1.000
    C500     C        0.11660    0.51530    0.50310    1.000
    C501     C        0.05920    0.50120    0.50162    1.000
    C502     C        0.04390    0.45410    0.49036    1.000
    C503     C        0.99110    0.44106    0.48907    1.000
    C504     C        0.04640    0.52480    0.50096    1.000
    C505     C        0.03100    0.47760    0.48970    1.000
    C506     C        0.97820    0.46458    0.48841    1.000
    C507     C        0.10400    0.53870    0.50228    1.000
    C508     C        0.10400    0.36930    0.50560    1.000
    H551     H        0.10760    0.39040    0.52160    1.000
    H552     H        0.07380    0.34580    0.50740    1.000
    H553     H        0.13580    0.34850    0.50300    1.000
    C509     C        0.97100    0.40100    0.44060    1.000
    H554     H        0.94910    0.43220    0.43840    1.000
    H555     H        0.00710    0.40910    0.43560    1.000
    H556     H        0.95760    0.37260    0.42950    1.000
    C510     C        0.08360    0.38670    0.50290    1.000
    H557     H        0.07990    0.40380    0.52010    1.000
    H558     H        0.11700    0.36780    0.50230    1.000
    H559     H        0.05470    0.36190    0.50040    1.000
    C511     C        0.96500    0.42260    0.43980    1.000
    H560     H        0.95500    0.45930    0.43740    1.000
    H561     H        0.94320    0.40020    0.42870    1.000
    H562     H        0.00200    0.41810    0.43490    1.000
    S175     S        0.21710    0.22882    0.45436    1.000
    S176     S        0.20913    0.35688    0.45483    1.000
    S177     S        0.17888    0.36227    0.45352    1.000
    S178     S        0.16863    0.23930    0.45319    1.000
    O175     O        0.30520    0.16050    0.48410    1.000
    O176     O        0.24320    0.16060    0.51530    1.000
    C512     C        0.27530    0.18160    0.49940    1.000
    C513     C        0.27290    0.24072    0.50028    1.000
    C514     C        0.24660    0.26660    0.48022    1.000
    C515     C        0.24311    0.32100    0.48043    1.000
    C516     C        0.26600    0.34944    0.50070    1.000
    C517     C        0.20771    0.32350    0.47924    1.000
    C518     C        0.20423    0.26920    0.47945    1.000
    C519     C        0.27440    0.21540    0.43360    1.000
    H563     H        0.26330    0.19630    0.41790    1.000
    H564     H        0.29970    0.19420    0.44350    1.000
    H565     H        0.29080    0.24860    0.42840    1.000
    C520     C        0.26140    0.36730    0.43090    1.000
    H566     H        0.29120    0.38440    0.43950    1.000
    H567     H        0.24850    0.38970    0.41660    1.000
    H568     H        0.27250    0.33350    0.42370    1.000
    C521     C        0.23380    0.36030    0.43100    1.000
    H569     H        0.26660    0.36230    0.44090    1.000
    H570     H        0.23160    0.39000    0.41880    1.000
    H571     H        0.23280    0.32750    0.42100    1.000
    C522     C        0.10390    0.25150    0.46720    1.000
    H572     H        0.09490    0.28860    0.46510    1.000
    H573     H        0.10420    0.24270    0.48600    1.000
    H574     H        0.07780    0.22990    0.45820    1.000
    O177     O        0.35930    0.14350    0.47160    1.000
    H575     H        0.38900    0.14600    0.47900    1.000
    H576     H        0.36000    0.17200    0.46300    1.000
    O178     O        0.21760    0.42940    0.51472    1.000
    O179     O        0.29110    0.57530    0.55694    1.000
    O180     O        0.23070    0.51120    0.56050    1.000
    S179     S        0.20026    0.61471    0.60310    1.000
    S180     S        0.34833    0.46742    0.58337    1.000
    Zn35     Zn       0.21021    0.50370    0.52389    1.000
    Zn36     Zn       0.30286    0.58832    0.51891    1.000
    C523     C        0.73490    0.95750    0.56932    1.000
    C524     C        0.72560    0.96170    0.59850    1.000
    C525     C        0.75450    0.93140    0.61577    1.000
    C526     C        0.68850    0.99700    0.60728    1.000
    C527     C        0.85880    0.92410    0.60530    1.000
    H577     H        0.85330    0.95310    0.61760    1.000
    H578     H        0.88770    0.90200    0.61150    1.000
    H579     H        0.86750    0.93810    0.58790    1.000
    C528     C        0.59450    0.99070    0.58240    1.000
    H580     H        0.58250    0.98360    0.60030    1.000
    H581     H        0.56640    0.00820    0.57260    1.000
    H582     H        0.60340    0.95760    0.57370    1.000
    S181     S        0.90573    0.08831    0.47784    1.000
    S182     S        0.03063    0.11944    0.47475    1.000
    S183     S        0.91800    0.06451    0.47725    1.000
    S184     S        0.04374    0.09549    0.47385    1.000
    O181     O        0.86390    0.96080    0.48560    1.000
    O182     O        0.86050    0.00180    0.52451    1.000
    O183     O        0.87780    0.93710    0.48390    1.000
    O184     O        0.87130    0.97860    0.52220    1.000
    C529     C        0.88340    0.98470    0.50310    1.000
    C530     C        0.94080    0.99880    0.50162    1.000
    C531     C        0.95610    0.04590    0.49036    1.000
    C532     C        0.00890    0.05894    0.48907    1.000
    C533     C        0.95360    0.97520    0.50096    1.000
    C534     C        0.96900    0.02240    0.48970    1.000
    C535     C        0.02180    0.03542    0.48841    1.000
    C536     C        0.89600    0.96130    0.50228    1.000
    C537     C        0.89600    0.13070    0.50560    1.000
    H583     H        0.89240    0.10960    0.52160    1.000
    H584     H        0.92620    0.15420    0.50740    1.000
    H585     H        0.86420    0.15150    0.50300    1.000
    C538     C        0.02900    0.09900    0.44060    1.000
    H586     H        0.05090    0.06780    0.43840    1.000
    H587     H        0.99290    0.09090    0.43560    1.000
    H588     H        0.04240    0.12740    0.42950    1.000
    C539     C        0.91640    0.11330    0.50290    1.000
    H589     H        0.92010    0.09620    0.52010    1.000
    H590     H        0.88300    0.13220    0.50230    1.000
    H591     H        0.94530    0.13810    0.50040    1.000
    C540     C        0.03500    0.07740    0.43980    1.000
    H592     H        0.04500    0.04070    0.43740    1.000
    H593     H        0.05680    0.09980    0.42870    1.000
    H594     H        0.99800    0.08190    0.43490    1.000
    S185     S        0.78290    0.27118    0.45436    1.000
    S186     S        0.79087    0.14312    0.45483    1.000
    S187     S        0.82112    0.13773    0.45352    1.000
    S188     S        0.83137    0.26070    0.45319    1.000
    O185     O        0.69480    0.33950    0.48410    1.000
    O186     O        0.75680    0.33940    0.51530    1.000
    C541     C        0.72470    0.31840    0.49940    1.000
    C542     C        0.72710    0.25928    0.50028    1.000
    C543     C        0.75340    0.23340    0.48022    1.000
    C544     C        0.75689    0.17900    0.48043    1.000
    C545     C        0.73400    0.15056    0.50070    1.000
    C546     C        0.79229    0.17650    0.47924    1.000
    C547     C        0.79577    0.23080    0.47945    1.000
    C548     C        0.72560    0.28460    0.43360    1.000
    H595     H        0.73670    0.30370    0.41790    1.000
    H596     H        0.70030    0.30580    0.44350    1.000
    H597     H        0.70920    0.25140    0.42840    1.000
    C549     C        0.73860    0.13270    0.43090    1.000
    H598     H        0.70880    0.11560    0.43950    1.000
    H599     H        0.75150    0.11030    0.41660    1.000
    H600     H        0.72750    0.16650    0.42370    1.000
    C550     C        0.76620    0.13970    0.43100    1.000
    H601     H        0.73340    0.13770    0.44090    1.000
    H602     H        0.76840    0.11000    0.41880    1.000
    H603     H        0.76720    0.17250    0.42100    1.000
    C551     C        0.89610    0.24850    0.46720    1.000
    H604     H        0.90510    0.21140    0.46510    1.000
    H605     H        0.89580    0.25730    0.48600    1.000
    H606     H        0.92220    0.27010    0.45820    1.000
    O187     O        0.64070    0.35650    0.47160    1.000
    H607     H        0.61100    0.35400    0.47900    1.000
    H608     H        0.64000    0.32800    0.46300    1.000
    O188     O        0.78240    0.07060    0.51472    1.000
    O189     O        0.70890    0.92470    0.55694    1.000
    O190     O        0.76930    0.98880    0.56050    1.000
    S189     S        0.79974    0.88529    0.60310    1.000
    S190     S        0.65167    0.03258    0.58337    1.000
    Zn37     Zn       0.78979    0.99630    0.52389    1.000
    Zn38     Zn       0.69714    0.91168    0.51891    1.000
    C552     C        0.23490    0.45750    0.06932    1.000
    C553     C        0.22560    0.46170    0.09850    1.000
    C554     C        0.25450    0.43140    0.11577    1.000
    C555     C        0.18850    0.49700    0.10728    1.000
    C556     C        0.35880    0.42410    0.10530    1.000
    H609     H        0.35330    0.45310    0.11760    1.000
    H610     H        0.38770    0.40200    0.11150    1.000
    H611     H        0.36750    0.43810    0.08790    1.000
    C557     C        0.09450    0.49070    0.08240    1.000
    H612     H        0.08250    0.48360    0.10030    1.000
    H613     H        0.06640    0.50820    0.07260    1.000
    H614     H        0.10340    0.45760    0.07370    1.000
    S191     S        0.40573    0.58831    0.97784    1.000
    S192     S        0.53063    0.61944    0.97475    1.000
    S193     S        0.41800    0.56451    0.97725    1.000
    S194     S        0.54374    0.59549    0.97385    1.000
    O191     O        0.36390    0.46080    0.98560    1.000
    O192     O        0.36050    0.50180    0.02451    1.000
    O193     O        0.37780    0.43710    0.98390    1.000
    O194     O        0.37130    0.47860    0.02220    1.000
    C558     C        0.38340    0.48470    0.00310    1.000
    C559     C        0.44080    0.49880    0.00162    1.000
    C560     C        0.45610    0.54590    0.99036    1.000
    C561     C        0.50890    0.55894    0.98907    1.000
    C562     C        0.45360    0.47520    0.00096    1.000
    C563     C        0.46900    0.52240    0.98970    1.000
    C564     C        0.52180    0.53542    0.98841    1.000
    C565     C        0.39600    0.46130    0.00228    1.000
    C566     C        0.39600    0.63070    0.00560    1.000
    H615     H        0.39240    0.60960    0.02160    1.000
    H616     H        0.42620    0.65420    0.00740    1.000
    H617     H        0.36420    0.65150    0.00300    1.000
    C567     C        0.52900    0.59900    0.94060    1.000
    H618     H        0.55090    0.56780    0.93840    1.000
    H619     H        0.49290    0.59090    0.93560    1.000
    H620     H        0.54240    0.62740    0.92950    1.000
    C568     C        0.41640    0.61330    0.00290    1.000
    H621     H        0.42010    0.59620    0.02010    1.000
    H622     H        0.38300    0.63220    0.00230    1.000
    H623     H        0.44530    0.63810    0.00040    1.000
    C569     C        0.53500    0.57740    0.93980    1.000
    H624     H        0.54500    0.54070    0.93740    1.000
    H625     H        0.55680    0.59980    0.92870    1.000
    H626     H        0.49800    0.58190    0.93490    1.000
    S195     S        0.28290    0.77118    0.95436    1.000
    S196     S        0.29087    0.64312    0.95483    1.000
    S197     S        0.32112    0.63773    0.95352    1.000
    S198     S        0.33137    0.76070    0.95319    1.000
    O195     O        0.19480    0.83950    0.98410    1.000
    O196     O        0.25680    0.83940    0.01530    1.000
    C570     C        0.22470    0.81840    0.99940    1.000
    C571     C        0.22710    0.75928    0.00028    1.000
    C572     C        0.25340    0.73340    0.98022    1.000
    C573     C        0.25689    0.67900    0.98043    1.000
    C574     C        0.23400    0.65056    0.00070    1.000
    C575     C        0.29229    0.67650    0.97924    1.000
    C576     C        0.29577    0.73080    0.97945    1.000
    C577     C        0.22560    0.78460    0.93360    1.000
    H627     H        0.23670    0.80370    0.91790    1.000
    H628     H        0.20030    0.80580    0.94350    1.000
    H629     H        0.20920    0.75140    0.92840    1.000
    C578     C        0.23860    0.63270    0.93090    1.000
    H630     H        0.20880    0.61560    0.93950    1.000
    H631     H        0.25150    0.61030    0.91660    1.000
    H632     H        0.22750    0.66650    0.92370    1.000
    C579     C        0.26620    0.63970    0.93100    1.000
    H633     H        0.23340    0.63770    0.94090    1.000
    H634     H        0.26840    0.61000    0.91880    1.000
    H635     H        0.26720    0.67250    0.92100    1.000
    C580     C        0.39610    0.74850    0.96720    1.000
    H636     H        0.40510    0.71140    0.96510    1.000
    H637     H        0.39580    0.75730    0.98600    1.000
    H638     H        0.42220    0.77010    0.95820    1.000
    O197     O        0.14070    0.85650    0.97160    1.000
    H639     H        0.11100    0.85400    0.97900    1.000
    H640     H        0.14000    0.82800    0.96300    1.000
    O198     O        0.28240    0.57060    0.01472    1.000
    O199     O        0.20890    0.42470    0.05694    1.000
    O200     O        0.26930    0.48880    0.06050    1.000
    S199     S        0.29974    0.38529    0.10310    1.000
    S200     S        0.15167    0.53258    0.08337    1.000
    Zn39     Zn       0.28979    0.49630    0.02389    1.000
    Zn40     Zn       0.19714    0.41168    0.01891    1.000
    C581     C        0.70750    0.01510    0.81932    1.000
    C582     C        0.71170    0.02440    0.84850    1.000
    C583     C        0.68140    0.99550    0.86577    1.000
    C584     C        0.74700    0.06150    0.85728    1.000
    C585     C        0.67410    0.89120    0.85530    1.000
    H641     H        0.70310    0.89670    0.86760    1.000
    H642     H        0.65200    0.86230    0.86150    1.000
    H643     H        0.68810    0.88250    0.83790    1.000
    C586     C        0.74070    0.15550    0.83240    1.000
    H644     H        0.73360    0.16750    0.85030    1.000
    H645     H        0.75820    0.18360    0.82260    1.000
    H646     H        0.70760    0.14660    0.82370    1.000
    S201     S        0.83831    0.84427    0.72784    1.000
    S202     S        0.86944    0.71937    0.72475    1.000
    S203     S        0.81451    0.83200    0.72725    1.000
    S204     S        0.84549    0.70626    0.72385    1.000
    O201     O        0.71080    0.88610    0.73560    1.000
    O202     O        0.75180    0.88950    0.77451    1.000
    O203     O        0.68710    0.87220    0.73390    1.000
    O204     O        0.72860    0.87870    0.77220    1.000
    C587     C        0.73470    0.86660    0.75310    1.000
    C588     C        0.74880    0.80920    0.75162    1.000
    C589     C        0.79590    0.79390    0.74036    1.000
    C590     C        0.80894    0.74110    0.73907    1.000
    C591     C        0.72520    0.79640    0.75096    1.000
    C592     C        0.77240    0.78100    0.73970    1.000
    C593     C        0.78542    0.72820    0.73841    1.000
    C594     C        0.71130    0.85400    0.75228    1.000
    C595     C        0.88070    0.85400    0.75560    1.000
    H647     H        0.85960    0.85760    0.77160    1.000
    H648     H        0.90420    0.82380    0.75740    1.000
    H649     H        0.90150    0.88580    0.75300    1.000
    C596     C        0.84900    0.72100    0.69060    1.000
    H650     H        0.81780    0.69910    0.68840    1.000
    H651     H        0.84090    0.75710    0.68560    1.000
    H652     H        0.87740    0.70760    0.67950    1.000
    C597     C        0.86330    0.83360    0.75290    1.000
    H653     H        0.84620    0.82990    0.77010    1.000
    H654     H        0.88220    0.86700    0.75230    1.000
    H655     H        0.88810    0.80470    0.75040    1.000
    C598     C        0.82740    0.71500    0.68980    1.000
    H656     H        0.79070    0.70500    0.68740    1.000
    H657     H        0.84980    0.69320    0.67870    1.000
    H658     H        0.83190    0.75200    0.68490    1.000
    S205     S        0.02118    0.96710    0.70436    1.000
    S206     S        0.89312    0.95913    0.70483    1.000
    S207     S        0.88773    0.92888    0.70352    1.000
    S208     S        0.01070    0.91863    0.70319    1.000
    O205     O        0.08950    0.05520    0.73410    1.000
    O206     O        0.08940    0.99320    0.76530    1.000
    C599     C        0.06840    0.02530    0.74940    1.000
    C600     C        0.00928    0.02290    0.75028    1.000
    C601     C        0.98340    0.99660    0.73022    1.000
    C602     C        0.92900    0.99311    0.73043    1.000
    C603     C        0.90056    0.01600    0.75070    1.000
    C604     C        0.92650    0.95771    0.72924    1.000
    C605     C        0.98080    0.95423    0.72945    1.000
    C606     C        0.03460    0.02440    0.68360    1.000
    H659     H        0.05370    0.01330    0.66790    1.000
    H660     H        0.05580    0.04970    0.69350    1.000
    H661     H        0.00140    0.04080    0.67840    1.000
    C607     C        0.88270    0.01140    0.68090    1.000
    H662     H        0.86560    0.04120    0.68950    1.000
    H663     H        0.86030    0.99850    0.66660    1.000
    H664     H        0.91650    0.02250    0.67370    1.000
    C608     C        0.88970    0.98380    0.68100    1.000
    H665     H        0.88770    0.01660    0.69090    1.000
    H666     H        0.86000    0.98160    0.66880    1.000
    H667     H        0.92250    0.98280    0.67100    1.000
    C609     C        0.99850    0.85390    0.71720    1.000
    H668     H        0.96140    0.84490    0.71510    1.000
    H669     H        0.00730    0.85420    0.73600    1.000
    H670     H        0.02010    0.82780    0.70820    1.000
    O207     O        0.10650    0.10930    0.72160    1.000
    H671     H        0.10400    0.13900    0.72900    1.000
    H672     H        0.07800    0.11000    0.71300    1.000
    O208     O        0.82060    0.96760    0.76472    1.000
    O209     O        0.67470    0.04110    0.80694    1.000
    O210     O        0.73880    0.98070    0.81050    1.000
    S209     S        0.63529    0.95026    0.85310    1.000
    S210     S        0.78258    0.09833    0.83337    1.000
    Zn41     Zn       0.74630    0.96021    0.77389    1.000
    Zn42     Zn       0.66168    0.05286    0.76891    1.000
    C610     C        0.20750    0.51510    0.31932    1.000
    C611     C        0.21170    0.52440    0.34850    1.000
    C612     C        0.18140    0.49550    0.36577    1.000
    C613     C        0.24700    0.56150    0.35728    1.000
    C614     C        0.17410    0.39120    0.35530    1.000
    H673     H        0.20310    0.39670    0.36760    1.000
    H674     H        0.15200    0.36230    0.36150    1.000
    H675     H        0.18810    0.38250    0.33790    1.000
    C615     C        0.24070    0.65550    0.33240    1.000
    H676     H        0.23360    0.66750    0.35030    1.000
    H677     H        0.25820    0.68360    0.32260    1.000
    H678     H        0.20760    0.64660    0.32370    1.000
    S211     S        0.33831    0.34427    0.22784    1.000
    S212     S        0.36944    0.21937    0.22475    1.000
    S213     S        0.31451    0.33200    0.22725    1.000
    S214     S        0.34549    0.20626    0.22385    1.000
    O211     O        0.21080    0.38610    0.23560    1.000
    O212     O        0.25180    0.38950    0.27451    1.000
    O213     O        0.18710    0.37220    0.23390    1.000
    O214     O        0.22860    0.37870    0.27220    1.000
    C616     C        0.23470    0.36660    0.25310    1.000
    C617     C        0.24880    0.30920    0.25162    1.000
    C618     C        0.29590    0.29390    0.24036    1.000
    C619     C        0.30894    0.24110    0.23907    1.000
    C620     C        0.22520    0.29640    0.25096    1.000
    C621     C        0.27240    0.28100    0.23970    1.000
    C622     C        0.28542    0.22820    0.23841    1.000
    C623     C        0.21130    0.35400    0.25228    1.000
    C624     C        0.38070    0.35400    0.25560    1.000
    H679     H        0.35960    0.35760    0.27160    1.000
    H680     H        0.40420    0.32380    0.25740    1.000
    H681     H        0.40150    0.38580    0.25300    1.000
    C625     C        0.34900    0.22100    0.19060    1.000
    H682     H        0.31780    0.19910    0.18840    1.000
    H683     H        0.34090    0.25710    0.18560    1.000
    H684     H        0.37740    0.20760    0.17950    1.000
    C626     C        0.36330    0.33360    0.25290    1.000
    H685     H        0.34620    0.32990    0.27010    1.000
    H686     H        0.38220    0.36700    0.25230    1.000
    H687     H        0.38810    0.30470    0.25040    1.000
    C627     C        0.32740    0.21500    0.18980    1.000
    H688     H        0.29070    0.20500    0.18740    1.000
    H689     H        0.34980    0.19320    0.17870    1.000
    H690     H        0.33190    0.25200    0.18490    1.000
    S215     S        0.52118    0.46710    0.20436    1.000
    S216     S        0.39312    0.45913    0.20483    1.000
    S217     S        0.38773    0.42888    0.20352    1.000
    S218     S        0.51070    0.41863    0.20319    1.000
    O215     O        0.58950    0.55520    0.23410    1.000
    O216     O        0.58940    0.49320    0.26530    1.000
    C628     C        0.56840    0.52530    0.24940    1.000
    C629     C        0.50928    0.52290    0.25028    1.000
    C630     C        0.48340    0.49660    0.23022    1.000
    C631     C        0.42900    0.49311    0.23043    1.000
    C632     C        0.40056    0.51600    0.25070    1.000
    C633     C        0.42650    0.45771    0.22924    1.000
    C634     C        0.48080    0.45423    0.22945    1.000
    C635     C        0.53460    0.52440    0.18360    1.000
    H691     H        0.55370    0.51330    0.16790    1.000
    H692     H        0.55580    0.54970    0.19350    1.000
    H693     H        0.50140    0.54080    0.17840    1.000
    C636     C        0.38270    0.51140    0.18090    1.000
    H694     H        0.36560    0.54120    0.18950    1.000
    H695     H        0.36030    0.49850    0.16660    1.000
    H696     H        0.41650    0.52250    0.17370    1.000
    C637     C        0.38970    0.48380    0.18100    1.000
    H697     H        0.38770    0.51660    0.19090    1.000
    H698     H        0.36000    0.48160    0.16880    1.000
    H699     H        0.42250    0.48280    0.17100    1.000
    C638     C        0.49850    0.35390    0.21720    1.000
    H700     H        0.46140    0.34490    0.21510    1.000
    H701     H        0.50730    0.35420    0.23600    1.000
    H702     H        0.52010    0.32780    0.20820    1.000
    O217     O        0.60650    0.60930    0.22160    1.000
    H703     H        0.60400    0.63900    0.22900    1.000
    H704     H        0.57800    0.61000    0.21300    1.000
    O218     O        0.32060    0.46760    0.26472    1.000
    O219     O        0.17470    0.54110    0.30694    1.000
    O220     O        0.23880    0.48070    0.31050    1.000
    S219     S        0.13529    0.45026    0.35310    1.000
    S220     S        0.28258    0.59833    0.33337    1.000
    Zn43     Zn       0.24630    0.46021    0.27389    1.000
    Zn44     Zn       0.16168    0.55286    0.26891    1.000
    C639     C        0.79250    0.98490    0.31932    1.000
    C640     C        0.78830    0.97560    0.34850    1.000
    C641     C        0.81860    0.00450    0.36577    1.000
    C642     C        0.75300    0.93850    0.35728    1.000
    C643     C        0.82590    0.10880    0.35530    1.000
    H705     H        0.79690    0.10330    0.36760    1.000
    H706     H        0.84800    0.13770    0.36150    1.000
    H707     H        0.81190    0.11750    0.33790    1.000
    C644     C        0.75930    0.84450    0.33240    1.000
    H708     H        0.76640    0.83250    0.35030    1.000
    H709     H        0.74180    0.81640    0.32260    1.000
    H710     H        0.79240    0.85340    0.32370    1.000
    S221     S        0.66169    0.15573    0.22784    1.000
    S222     S        0.63056    0.28063    0.22475    1.000
    S223     S        0.68549    0.16800    0.22725    1.000
    S224     S        0.65451    0.29374    0.22385    1.000
    O221     O        0.78920    0.11390    0.23560    1.000
    O222     O        0.74820    0.11050    0.27451    1.000
    O223     O        0.81290    0.12780    0.23390    1.000
    O224     O        0.77140    0.12130    0.27220    1.000
    C645     C        0.76530    0.13340    0.25310    1.000
    C646     C        0.75120    0.19080    0.25162    1.000
    C647     C        0.70410    0.20610    0.24036    1.000
    C648     C        0.69106    0.25890    0.23907    1.000
    C649     C        0.77480    0.20360    0.25096    1.000
    C650     C        0.72760    0.21900    0.23970    1.000
    C651     C        0.71458    0.27180    0.23841    1.000
    C652     C        0.78870    0.14600    0.25228    1.000
    C653     C        0.61930    0.14600    0.25560    1.000
    H711     H        0.64040    0.14240    0.27160    1.000
    H712     H        0.59580    0.17620    0.25740    1.000
    H713     H        0.59850    0.11420    0.25300    1.000
    C654     C        0.65100    0.27900    0.19060    1.000
    H714     H        0.68220    0.30090    0.18840    1.000
    H715     H        0.65910    0.24290    0.18560    1.000
    H716     H        0.62260    0.29240    0.17950    1.000
    C655     C        0.63670    0.16640    0.25290    1.000
    H717     H        0.65380    0.17010    0.27010    1.000
    H718     H        0.61780    0.13300    0.25230    1.000
    H719     H        0.61190    0.19530    0.25040    1.000
    C656     C        0.67260    0.28500    0.18980    1.000
    H720     H        0.70930    0.29500    0.18740    1.000
    H721     H        0.65020    0.30680    0.17870    1.000
    H722     H        0.66810    0.24800    0.18490    1.000
    S225     S        0.47882    0.03290    0.20436    1.000
    S226     S        0.60688    0.04087    0.20483    1.000
    S227     S        0.61227    0.07112    0.20352    1.000
    S228     S        0.48930    0.08137    0.20319    1.000
    O225     O        0.41050    0.94480    0.23410    1.000
    O226     O        0.41060    0.00680    0.26530    1.000
    C657     C        0.43160    0.97470    0.24940    1.000
    C658     C        0.49072    0.97710    0.25028    1.000
    C659     C        0.51660    0.00340    0.23022    1.000
    C660     C        0.57100    0.00689    0.23043    1.000
    C661     C        0.59944    0.98400    0.25070    1.000
    C662     C        0.57350    0.04229    0.22924    1.000
    C663     C        0.51920    0.04577    0.22945    1.000
    C664     C        0.46540    0.97560    0.18360    1.000
    H723     H        0.44630    0.98670    0.16790    1.000
    H724     H        0.44420    0.95030    0.19350    1.000
    H725     H        0.49860    0.95920    0.17840    1.000
    C665     C        0.61730    0.98860    0.18090    1.000
    H726     H        0.63440    0.95880    0.18950    1.000
    H727     H        0.63970    0.00150    0.16660    1.000
    H728     H        0.58350    0.97750    0.17370    1.000
    C666     C        0.61030    0.01620    0.18100    1.000
    H729     H        0.61230    0.98340    0.19090    1.000
    H730     H        0.64000    0.01840    0.16880    1.000
    H731     H        0.57750    0.01720    0.17100    1.000
    C667     C        0.50150    0.14610    0.21720    1.000
    H732     H        0.53860    0.15510    0.21510    1.000
    H733     H        0.49270    0.14580    0.23600    1.000
    H734     H        0.47990    0.17220    0.20820    1.000
    O227     O        0.39350    0.89070    0.22160    1.000
    H735     H        0.39600    0.86100    0.22900    1.000
    H736     H        0.42200    0.89000    0.21300    1.000
    O228     O        0.67940    0.03240    0.26472    1.000
    O229     O        0.82530    0.95890    0.30694    1.000
    O230     O        0.76120    0.01930    0.31050    1.000
    S229     S        0.86471    0.04974    0.35310    1.000
    S230     S        0.71742    0.90167    0.33337    1.000
    Zn45     Zn       0.75370    0.03979    0.27389    1.000
    Zn46     Zn       0.83832    0.94714    0.26891    1.000
    C668     C        0.29250    0.48490    0.81932    1.000
    C669     C        0.28830    0.47560    0.84850    1.000
    C670     C        0.31860    0.50450    0.86577    1.000
    C671     C        0.25300    0.43850    0.85728    1.000
    C672     C        0.32590    0.60880    0.85530    1.000
    H737     H        0.29690    0.60330    0.86760    1.000
    H738     H        0.34800    0.63770    0.86150    1.000
    H739     H        0.31190    0.61750    0.83790    1.000
    C673     C        0.25930    0.34450    0.83240    1.000
    H740     H        0.26640    0.33250    0.85030    1.000
    H741     H        0.24180    0.31640    0.82260    1.000
    H742     H        0.29240    0.35340    0.82370    1.000
    S231     S        0.16169    0.65573    0.72784    1.000
    S232     S        0.13056    0.78063    0.72475    1.000
    S233     S        0.18549    0.66800    0.72725    1.000
    S234     S        0.15451    0.79374    0.72385    1.000
    O231     O        0.28920    0.61390    0.73560    1.000
    O232     O        0.24820    0.61050    0.77451    1.000
    O233     O        0.31290    0.62780    0.73390    1.000
    O234     O        0.27140    0.62130    0.77220    1.000
    C674     C        0.26530    0.63340    0.75310    1.000
    C675     C        0.25120    0.69080    0.75162    1.000
    C676     C        0.20410    0.70610    0.74036    1.000
    C677     C        0.19106    0.75890    0.73907    1.000
    C678     C        0.27480    0.70360    0.75096    1.000
    C679     C        0.22760    0.71900    0.73970    1.000
    C680     C        0.21458    0.77180    0.73841    1.000
    C681     C        0.28870    0.64600    0.75228    1.000
    C682     C        0.11930    0.64600    0.75560    1.000
    H743     H        0.14040    0.64240    0.77160    1.000
    H744     H        0.09580    0.67620    0.75740    1.000
    H745     H        0.09850    0.61420    0.75300    1.000
    C683     C        0.15100    0.77900    0.69060    1.000
    H746     H        0.18220    0.80090    0.68840    1.000
    H747     H        0.15910    0.74290    0.68560    1.000
    H748     H        0.12260    0.79240    0.67950    1.000
    C684     C        0.13670    0.66640    0.75290    1.000
    H749     H        0.15380    0.67010    0.77010    1.000
    H750     H        0.11780    0.63300    0.75230    1.000
    H751     H        0.11190    0.69530    0.75040    1.000
    C685     C        0.17260    0.78500    0.68980    1.000
    H752     H        0.20930    0.79500    0.68740    1.000
    H753     H        0.15020    0.80680    0.67870    1.000
    H754     H        0.16810    0.74800    0.68490    1.000
    S235     S        0.97882    0.53290    0.70436    1.000
    S236     S        0.10688    0.54087    0.70483    1.000
    S237     S        0.11227    0.57112    0.70352    1.000
    S238     S        0.98930    0.58137    0.70319    1.000
    O235     O        0.91050    0.44480    0.73410    1.000
    O236     O        0.91060    0.50680    0.76530    1.000
    C686     C        0.93160    0.47470    0.74940    1.000
    C687     C        0.99072    0.47710    0.75028    1.000
    C688     C        0.01660    0.50340    0.73022    1.000
    C689     C        0.07100    0.50689    0.73043    1.000
    C690     C        0.09944    0.48400    0.75070    1.000
    C691     C        0.07350    0.54229    0.72924    1.000
    C692     C        0.01920    0.54577    0.72945    1.000
    C693     C        0.96540    0.47560    0.68360    1.000
    H755     H        0.94630    0.48670    0.66790    1.000
    H756     H        0.94420    0.45030    0.69350    1.000
    H757     H        0.99860    0.45920    0.67840    1.000
    C694     C        0.11730    0.48860    0.68090    1.000
    H758     H        0.13440    0.45880    0.68950    1.000
    H759     H        0.13970    0.50150    0.66660    1.000
    H760     H        0.08350    0.47750    0.67370    1.000
    C695     C        0.11030    0.51620    0.68100    1.000
    H761     H        0.11230    0.48340    0.69090    1.000
    H762     H        0.14000    0.51840    0.66880    1.000
    H763     H        0.07750    0.51720    0.67100    1.000
    C696     C        0.00150    0.64610    0.71720    1.000
    H764     H        0.03860    0.65510    0.71510    1.000
    H765     H        0.99270    0.64580    0.73600    1.000
    H766     H        0.97990    0.67220    0.70820    1.000
    O237     O        0.89350    0.39070    0.72160    1.000
    H767     H        0.89600    0.36100    0.72900    1.000
    H768     H        0.92200    0.39000    0.71300    1.000
    O238     O        0.17940    0.53240    0.76472    1.000
    O239     O        0.32530    0.45890    0.80694    1.000
    O240     O        0.26120    0.51930    0.81050    1.000
    S239     S        0.36471    0.54974    0.85310    1.000
    S240     S        0.21742    0.40167    0.83337    1.000
    Zn47     Zn       0.25370    0.53979    0.77389    1.000
    Zn48     Zn       0.33832    0.44714    0.76891    1.000
    C697     C        0.73490    0.04250    0.93068    1.000
    C698     C        0.72560    0.03830    0.90150    1.000
    C699     C        0.75450    0.06860    0.88423    1.000
    C700     C        0.68850    0.00300    0.89272    1.000
    C701     C        0.85880    0.07590    0.89470    1.000
    H769     H        0.85330    0.04690    0.88240    1.000
    H770     H        0.88770    0.09800    0.88850    1.000
    H771     H        0.86750    0.06190    0.91210    1.000
    C702     C        0.59450    0.00930    0.91760    1.000
    H772     H        0.58250    0.01640    0.89970    1.000
    H773     H        0.56640    0.99180    0.92740    1.000
    H774     H        0.60340    0.04240    0.92630    1.000
    S241     S        0.90573    0.91169    0.02216    1.000
    S242     S        0.03063    0.88056    0.02525    1.000
    S243     S        0.91800    0.93549    0.02275    1.000
    S244     S        0.04374    0.90451    0.02615    1.000
    O241     O        0.86390    0.03920    0.01440    1.000
    O242     O        0.86050    0.99820    0.97549    1.000
    O243     O        0.87780    0.06290    0.01610    1.000
    O244     O        0.87130    0.02140    0.97780    1.000
    C703     C        0.88340    0.01530    0.99690    1.000
    C704     C        0.94080    0.00120    0.99838    1.000
    C705     C        0.95610    0.95410    0.00964    1.000
    C706     C        0.00890    0.94106    0.01093    1.000
    C707     C        0.95360    0.02480    0.99904    1.000
    C708     C        0.96900    0.97760    0.01030    1.000
    C709     C        0.02180    0.96458    0.01159    1.000
    C710     C        0.89600    0.03870    0.99772    1.000
    C711     C        0.89600    0.86930    0.99440    1.000
    H775     H        0.89240    0.89040    0.97840    1.000
    H776     H        0.92620    0.84580    0.99260    1.000
    H777     H        0.86420    0.84850    0.99700    1.000
    C712     C        0.02900    0.90100    0.05940    1.000
    H778     H        0.05090    0.93220    0.06160    1.000
    H779     H        0.99290    0.90910    0.06440    1.000
    H780     H        0.04240    0.87260    0.07050    1.000
    C713     C        0.91640    0.88670    0.99710    1.000
    H781     H        0.92010    0.90380    0.97990    1.000
    H782     H        0.88300    0.86780    0.99770    1.000
    H783     H        0.94530    0.86190    0.99960    1.000
    C714     C        0.03500    0.92260    0.06020    1.000
    H784     H        0.04500    0.95930    0.06260    1.000
    H785     H        0.05680    0.90020    0.07130    1.000
    H786     H        0.99800    0.91810    0.06510    1.000
    S245     S        0.78290    0.72882    0.04564    1.000
    S246     S        0.79087    0.85688    0.04517    1.000
    S247     S        0.82112    0.86227    0.04648    1.000
    S248     S        0.83137    0.73930    0.04681    1.000
    O245     O        0.69480    0.66050    0.01590    1.000
    O246     O        0.75680    0.66060    0.98470    1.000
    C715     C        0.72470    0.68160    0.00060    1.000
    C716     C        0.72710    0.74072    0.99972    1.000
    C717     C        0.75340    0.76660    0.01978    1.000
    C718     C        0.75689    0.82100    0.01957    1.000
    C719     C        0.73400    0.84944    0.99930    1.000
    C720     C        0.79229    0.82350    0.02076    1.000
    C721     C        0.79577    0.76920    0.02055    1.000
    C722     C        0.72560    0.71540    0.06640    1.000
    H787     H        0.73670    0.69630    0.08210    1.000
    H788     H        0.70030    0.69420    0.05650    1.000
    H789     H        0.70920    0.74860    0.07160    1.000
    C723     C        0.73860    0.86730    0.06910    1.000
    H790     H        0.70880    0.88440    0.06050    1.000
    H791     H        0.75150    0.88970    0.08340    1.000
    H792     H        0.72750    0.83350    0.07630    1.000
    C724     C        0.76620    0.86030    0.06900    1.000
    H793     H        0.73340    0.86230    0.05910    1.000
    H794     H        0.76840    0.89000    0.08120    1.000
    H795     H        0.76720    0.82750    0.07900    1.000
    C725     C        0.89610    0.75150    0.03280    1.000
    H796     H        0.90510    0.78860    0.03490    1.000
    H797     H        0.89580    0.74270    0.01400    1.000
    H798     H        0.92220    0.72990    0.04180    1.000
    O247     O        0.64070    0.64350    0.02840    1.000
    H799     H        0.61100    0.64600    0.02100    1.000
    H800     H        0.64000    0.67200    0.03700    1.000
    O248     O        0.78240    0.92940    0.98528    1.000
    O249     O        0.70890    0.07530    0.94306    1.000
    O250     O        0.76930    0.01120    0.93950    1.000
    S249     S        0.79974    0.11471    0.89690    1.000
    S250     S        0.65167    0.96742    0.91663    1.000
    Zn49     Zn       0.78979    0.00370    0.97611    1.000
    Zn50     Zn       0.69714    0.08832    0.98109    1.000
    C726     C        0.23490    0.54250    0.43068    1.000
    C727     C        0.22560    0.53830    0.40150    1.000
    C728     C        0.25450    0.56860    0.38423    1.000
    C729     C        0.18850    0.50300    0.39272    1.000
    C730     C        0.35880    0.57590    0.39470    1.000
    H801     H        0.35330    0.54690    0.38240    1.000
    H802     H        0.38770    0.59800    0.38850    1.000
    H803     H        0.36750    0.56190    0.41210    1.000
    C731     C        0.09450    0.50930    0.41760    1.000
    H804     H        0.08250    0.51640    0.39970    1.000
    H805     H        0.06640    0.49180    0.42740    1.000
    H806     H        0.10340    0.54240    0.42630    1.000
    S251     S        0.40573    0.41169    0.52216    1.000
    S252     S        0.53063    0.38056    0.52525    1.000
    S253     S        0.41800    0.43549    0.52275    1.000
    S254     S        0.54374    0.40451    0.52615    1.000
    O251     O        0.36390    0.53920    0.51440    1.000
    O252     O        0.36050    0.49820    0.47549    1.000
    O253     O        0.37780    0.56290    0.51610    1.000
    O254     O        0.37130    0.52140    0.47780    1.000
    C732     C        0.38340    0.51530    0.49690    1.000
    C733     C        0.44080    0.50120    0.49838    1.000
    C734     C        0.45610    0.45410    0.50964    1.000
    C735     C        0.50890    0.44106    0.51093    1.000
    C736     C        0.45360    0.52480    0.49904    1.000
    C737     C        0.46900    0.47760    0.51030    1.000
    C738     C        0.52180    0.46458    0.51159    1.000
    C739     C        0.39600    0.53870    0.49772    1.000
    C740     C        0.39600    0.36930    0.49440    1.000
    H807     H        0.39240    0.39040    0.47840    1.000
    H808     H        0.42620    0.34580    0.49260    1.000
    H809     H        0.36420    0.34850    0.49700    1.000
    C741     C        0.52900    0.40100    0.55940    1.000
    H810     H        0.55090    0.43220    0.56160    1.000
    H811     H        0.49290    0.40910    0.56440    1.000
    H812     H        0.54240    0.37260    0.57050    1.000
    C742     C        0.41640    0.38670    0.49710    1.000
    H813     H        0.42010    0.40380    0.47990    1.000
    H814     H        0.38300    0.36780    0.49770    1.000
    H815     H        0.44530    0.36190    0.49960    1.000
    C743     C        0.53500    0.42260    0.56020    1.000
    H816     H        0.54500    0.45930    0.56260    1.000
    H817     H        0.55680    0.40020    0.57130    1.000
    H818     H        0.49800    0.41810    0.56510    1.000
    S255     S        0.28290    0.22882    0.54564    1.000
    S256     S        0.29087    0.35688    0.54517    1.000
    S257     S        0.32112    0.36227    0.54648    1.000
    S258     S        0.33137    0.23930    0.54681    1.000
    O255     O        0.19480    0.16050    0.51590    1.000
    O256     O        0.25680    0.16060    0.48470    1.000
    C744     C        0.22470    0.18160    0.50060    1.000
    C745     C        0.22710    0.24072    0.49972    1.000
    C746     C        0.25340    0.26660    0.51978    1.000
    C747     C        0.25689    0.32100    0.51957    1.000
    C748     C        0.23400    0.34944    0.49930    1.000
    C749     C        0.29229    0.32350    0.52076    1.000
    C750     C        0.29577    0.26920    0.52055    1.000
    C751     C        0.22560    0.21540    0.56640    1.000
    H819     H        0.23670    0.19630    0.58210    1.000
    H820     H        0.20030    0.19420    0.55650    1.000
    H821     H        0.20920    0.24860    0.57160    1.000
    C752     C        0.23860    0.36730    0.56910    1.000
    H822     H        0.20880    0.38440    0.56050    1.000
    H823     H        0.25150    0.38970    0.58340    1.000
    H824     H        0.22750    0.33350    0.57630    1.000
    C753     C        0.26620    0.36030    0.56900    1.000
    H825     H        0.23340    0.36230    0.55910    1.000
    H826     H        0.26840    0.39000    0.58120    1.000
    H827     H        0.26720    0.32750    0.57900    1.000
    C754     C        0.39610    0.25150    0.53280    1.000
    H828     H        0.40510    0.28860    0.53490    1.000
    H829     H        0.39580    0.24270    0.51400    1.000
    H830     H        0.42220    0.22990    0.54180    1.000
    O257     O        0.14070    0.14350    0.52840    1.000
    H831     H        0.11100    0.14600    0.52100    1.000
    H832     H        0.14000    0.17200    0.53700    1.000
    O258     O        0.28240    0.42940    0.48528    1.000
    O259     O        0.20890    0.57530    0.44306    1.000
    O260     O        0.26930    0.51120    0.43950    1.000
    S259     S        0.29974    0.61471    0.39690    1.000
    S260     S        0.15167    0.46742    0.41663    1.000
    Zn51     Zn       0.28979    0.50370    0.47611    1.000
    Zn52     Zn       0.19714    0.58832    0.48109    1.000
    C755     C        0.76510    0.95750    0.43068    1.000
    C756     C        0.77440    0.96170    0.40150    1.000
    C757     C        0.74550    0.93140    0.38423    1.000
    C758     C        0.81150    0.99700    0.39272    1.000
    C759     C        0.64120    0.92410    0.39470    1.000
    H833     H        0.64670    0.95310    0.38240    1.000
    H834     H        0.61230    0.90200    0.38850    1.000
    H835     H        0.63250    0.93810    0.41210    1.000
    C760     C        0.90550    0.99070    0.41760    1.000
    H836     H        0.91750    0.98360    0.39970    1.000
    H837     H        0.93360    0.00820    0.42740    1.000
    H838     H        0.89660    0.95760    0.42630    1.000
    S261     S        0.59427    0.08831    0.52216    1.000
    S262     S        0.46937    0.11944    0.52525    1.000
    S263     S        0.58200    0.06451    0.52275    1.000
    S264     S        0.45626    0.09549    0.52615    1.000
    O261     O        0.63610    0.96080    0.51440    1.000
    O262     O        0.63950    0.00180    0.47549    1.000
    O263     O        0.62220    0.93710    0.51610    1.000
    O264     O        0.62870    0.97860    0.47780    1.000
    C761     C        0.61660    0.98470    0.49690    1.000
    C762     C        0.55920    0.99880    0.49838    1.000
    C763     C        0.54390    0.04590    0.50964    1.000
    C764     C        0.49110    0.05894    0.51093    1.000
    C765     C        0.54640    0.97520    0.49904    1.000
    C766     C        0.53100    0.02240    0.51030    1.000
    C767     C        0.47820    0.03542    0.51159    1.000
    C768     C        0.60400    0.96130    0.49772    1.000
    C769     C        0.60400    0.13070    0.49440    1.000
    H839     H        0.60760    0.10960    0.47840    1.000
    H840     H        0.57380    0.15420    0.49260    1.000
    H841     H        0.63580    0.15150    0.49700    1.000
    C770     C        0.47100    0.09900    0.55940    1.000
    H842     H        0.44910    0.06780    0.56160    1.000
    H843     H        0.50710    0.09090    0.56440    1.000
    H844     H        0.45760    0.12740    0.57050    1.000
    C771     C        0.58360    0.11330    0.49710    1.000
    H845     H        0.57990    0.09620    0.47990    1.000
    H846     H        0.61700    0.13220    0.49770    1.000
    H847     H        0.55470    0.13810    0.49960    1.000
    C772     C        0.46500    0.07740    0.56020    1.000
    H848     H        0.45500    0.04070    0.56260    1.000
    H849     H        0.44320    0.09980    0.57130    1.000
    H850     H        0.50200    0.08190    0.56510    1.000
    S265     S        0.71710    0.27118    0.54564    1.000
    S266     S        0.70913    0.14312    0.54517    1.000
    S267     S        0.67888    0.13773    0.54648    1.000
    S268     S        0.66863    0.26070    0.54681    1.000
    O265     O        0.80520    0.33950    0.51590    1.000
    O266     O        0.74320    0.33940    0.48470    1.000
    C773     C        0.77530    0.31840    0.50060    1.000
    C774     C        0.77290    0.25928    0.49972    1.000
    C775     C        0.74660    0.23340    0.51978    1.000
    C776     C        0.74311    0.17900    0.51957    1.000
    C777     C        0.76600    0.15056    0.49930    1.000
    C778     C        0.70771    0.17650    0.52076    1.000
    C779     C        0.70423    0.23080    0.52055    1.000
    C780     C        0.77440    0.28460    0.56640    1.000
    H851     H        0.76330    0.30370    0.58210    1.000
    H852     H        0.79970    0.30580    0.55650    1.000
    H853     H        0.79080    0.25140    0.57160    1.000
    C781     C        0.76140    0.13270    0.56910    1.000
    H854     H        0.79120    0.11560    0.56050    1.000
    H855     H        0.74850    0.11030    0.58340    1.000
    H856     H        0.77250    0.16650    0.57630    1.000
    C782     C        0.73380    0.13970    0.56900    1.000
    H857     H        0.76660    0.13770    0.55910    1.000
    H858     H        0.73160    0.11000    0.58120    1.000
    H859     H        0.73280    0.17250    0.57900    1.000
    C783     C        0.60390    0.24850    0.53280    1.000
    H860     H        0.59490    0.21140    0.53490    1.000
    H861     H        0.60420    0.25730    0.51400    1.000
    H862     H        0.57780    0.27010    0.54180    1.000
    O267     O        0.85930    0.35650    0.52840    1.000
    H863     H        0.88900    0.35400    0.52100    1.000
    H864     H        0.86000    0.32800    0.53700    1.000
    O268     O        0.71760    0.07060    0.48528    1.000
    O269     O        0.79110    0.92470    0.44306    1.000
    O270     O        0.73070    0.98880    0.43950    1.000
    S269     S        0.70026    0.88529    0.39690    1.000
    S270     S        0.84833    0.03258    0.41663    1.000
    Zn53     Zn       0.71021    0.99630    0.47611    1.000
    Zn54     Zn       0.80286    0.91168    0.48109    1.000
    C784     C        0.26510    0.45750    0.93068    1.000
    C785     C        0.27440    0.46170    0.90150    1.000
    C786     C        0.24550    0.43140    0.88423    1.000
    C787     C        0.31150    0.49700    0.89272    1.000
    C788     C        0.14120    0.42410    0.89470    1.000
    H865     H        0.14670    0.45310    0.88240    1.000
    H866     H        0.11230    0.40200    0.88850    1.000
    H867     H        0.13250    0.43810    0.91210    1.000
    C789     C        0.40550    0.49070    0.91760    1.000
    H868     H        0.41750    0.48360    0.89970    1.000
    H869     H        0.43360    0.50820    0.92740    1.000
    H870     H        0.39660    0.45760    0.92630    1.000
    S271     S        0.09427    0.58831    0.02216    1.000
    S272     S        0.96937    0.61944    0.02525    1.000
    S273     S        0.08200    0.56451    0.02275    1.000
    S274     S        0.95626    0.59549    0.02615    1.000
    O271     O        0.13610    0.46080    0.01440    1.000
    O272     O        0.13950    0.50180    0.97549    1.000
    O273     O        0.12220    0.43710    0.01610    1.000
    O274     O        0.12870    0.47860    0.97780    1.000
    C790     C        0.11660    0.48470    0.99690    1.000
    C791     C        0.05920    0.49880    0.99838    1.000
    C792     C        0.04390    0.54590    0.00964    1.000
    C793     C        0.99110    0.55894    0.01093    1.000
    C794     C        0.04640    0.47520    0.99904    1.000
    C795     C        0.03100    0.52240    0.01030    1.000
    C796     C        0.97820    0.53542    0.01159    1.000
    C797     C        0.10400    0.46130    0.99772    1.000
    C798     C        0.10400    0.63070    0.99440    1.000
    H871     H        0.10760    0.60960    0.97840    1.000
    H872     H        0.07380    0.65420    0.99260    1.000
    H873     H        0.13580    0.65150    0.99700    1.000
    C799     C        0.97100    0.59900    0.05940    1.000
    H874     H        0.94910    0.56780    0.06160    1.000
    H875     H        0.00710    0.59090    0.06440    1.000
    H876     H        0.95760    0.62740    0.07050    1.000
    C800     C        0.08360    0.61330    0.99710    1.000
    H877     H        0.07990    0.59620    0.97990    1.000
    H878     H        0.11700    0.63220    0.99770    1.000
    H879     H        0.05470    0.63810    0.99960    1.000
    C801     C        0.96500    0.57740    0.06020    1.000
    H880     H        0.95500    0.54070    0.06260    1.000
    H881     H        0.94320    0.59980    0.07130    1.000
    H882     H        0.00200    0.58190    0.06510    1.000
    S275     S        0.21710    0.77118    0.04564    1.000
    S276     S        0.20913    0.64312    0.04517    1.000
    S277     S        0.17888    0.63773    0.04648    1.000
    S278     S        0.16863    0.76070    0.04681    1.000
    O275     O        0.30520    0.83950    0.01590    1.000
    O276     O        0.24320    0.83940    0.98470    1.000
    C802     C        0.27530    0.81840    0.00060    1.000
    C803     C        0.27290    0.75928    0.99972    1.000
    C804     C        0.24660    0.73340    0.01978    1.000
    C805     C        0.24311    0.67900    0.01957    1.000
    C806     C        0.26600    0.65056    0.99930    1.000
    C807     C        0.20771    0.67650    0.02076    1.000
    C808     C        0.20423    0.73080    0.02055    1.000
    C809     C        0.27440    0.78460    0.06640    1.000
    H883     H        0.26330    0.80370    0.08210    1.000
    H884     H        0.29970    0.80580    0.05650    1.000
    H885     H        0.29080    0.75140    0.07160    1.000
    C810     C        0.26140    0.63270    0.06910    1.000
    H886     H        0.29120    0.61560    0.06050    1.000
    H887     H        0.24850    0.61030    0.08340    1.000
    H888     H        0.27250    0.66650    0.07630    1.000
    C811     C        0.23380    0.63970    0.06900    1.000
    H889     H        0.26660    0.63770    0.05910    1.000
    H890     H        0.23160    0.61000    0.08120    1.000
    H891     H        0.23280    0.67250    0.07900    1.000
    C812     C        0.10390    0.74850    0.03280    1.000
    H892     H        0.09490    0.71140    0.03490    1.000
    H893     H        0.10420    0.75730    0.01400    1.000
    H894     H        0.07780    0.77010    0.04180    1.000
    O277     O        0.35930    0.85650    0.02840    1.000
    H895     H        0.38900    0.85400    0.02100    1.000
    H896     H        0.36000    0.82800    0.03700    1.000
    O278     O        0.21760    0.57060    0.98528    1.000
    O279     O        0.29110    0.42470    0.94306    1.000
    O280     O        0.23070    0.48880    0.93950    1.000
    S279     S        0.20026    0.38529    0.89690    1.000
    S280     S        0.34833    0.53258    0.91663    1.000
    Zn55     Zn       0.21021    0.49630    0.97611    1.000
    Zn56     Zn       0.30286    0.41168    0.98109    1.000
    C813     C        0.79250    0.01510    0.18068    1.000
    C814     C        0.78830    0.02440    0.15150    1.000
    C815     C        0.81860    0.99550    0.13423    1.000
    C816     C        0.75300    0.06150    0.14272    1.000
    C817     C        0.82590    0.89120    0.14470    1.000
    H897     H        0.79690    0.89670    0.13240    1.000
    H898     H        0.84800    0.86230    0.13850    1.000
    H899     H        0.81190    0.88250    0.16210    1.000
    C818     C        0.75930    0.15550    0.16760    1.000
    H900     H        0.76640    0.16750    0.14970    1.000
    H901     H        0.74180    0.18360    0.17740    1.000
    H902     H        0.79240    0.14660    0.17630    1.000
    S281     S        0.66169    0.84427    0.27216    1.000
    S282     S        0.63056    0.71937    0.27525    1.000
    S283     S        0.68549    0.83200    0.27275    1.000
    S284     S        0.65451    0.70626    0.27615    1.000
    O281     O        0.78920    0.88610    0.26440    1.000
    O282     O        0.74820    0.88950    0.22549    1.000
    O283     O        0.81290    0.87220    0.26610    1.000
    O284     O        0.77140    0.87870    0.22780    1.000
    C819     C        0.76530    0.86660    0.24690    1.000
    C820     C        0.75120    0.80920    0.24838    1.000
    C821     C        0.70410    0.79390    0.25964    1.000
    C822     C        0.69106    0.74110    0.26093    1.000
    C823     C        0.77480    0.79640    0.24904    1.000
    C824     C        0.72760    0.78100    0.26030    1.000
    C825     C        0.71458    0.72820    0.26159    1.000
    C826     C        0.78870    0.85400    0.24772    1.000
    C827     C        0.61930    0.85400    0.24440    1.000
    H903     H        0.64040    0.85760    0.22840    1.000
    H904     H        0.59580    0.82380    0.24260    1.000
    H905     H        0.59850    0.88580    0.24700    1.000
    C828     C        0.65100    0.72100    0.30940    1.000
    H906     H        0.68220    0.69910    0.31160    1.000
    H907     H        0.65910    0.75710    0.31440    1.000
    H908     H        0.62260    0.70760    0.32050    1.000
    C829     C        0.63670    0.83360    0.24710    1.000
    H909     H        0.65380    0.82990    0.22990    1.000
    H910     H        0.61780    0.86700    0.24770    1.000
    H911     H        0.61190    0.80470    0.24960    1.000
    C830     C        0.67260    0.71500    0.31020    1.000
    H912     H        0.70930    0.70500    0.31260    1.000
    H913     H        0.65020    0.69320    0.32130    1.000
    H914     H        0.66810    0.75200    0.31510    1.000
    S285     S        0.47882    0.96710    0.29564    1.000
    S286     S        0.60688    0.95913    0.29517    1.000
    S287     S        0.61227    0.92888    0.29648    1.000
    S288     S        0.48930    0.91863    0.29681    1.000
    O285     O        0.41050    0.05520    0.26590    1.000
    O286     O        0.41060    0.99320    0.23470    1.000
    C831     C        0.43160    0.02530    0.25060    1.000
    C832     C        0.49072    0.02290    0.24972    1.000
    C833     C        0.51660    0.99660    0.26978    1.000
    C834     C        0.57100    0.99311    0.26957    1.000
    C835     C        0.59944    0.01600    0.24930    1.000
    C836     C        0.57350    0.95771    0.27076    1.000
    C837     C        0.51920    0.95423    0.27055    1.000
    C838     C        0.46540    0.02440    0.31640    1.000
    H915     H        0.44630    0.01330    0.33210    1.000
    H916     H        0.44420    0.04970    0.30650    1.000
    H917     H        0.49860    0.04080    0.32160    1.000
    C839     C        0.61730    0.01140    0.31910    1.000
    H918     H        0.63440    0.04120    0.31050    1.000
    H919     H        0.63970    0.99850    0.33340    1.000
    H920     H        0.58350    0.02250    0.32630    1.000
    C840     C        0.61030    0.98380    0.31900    1.000
    H921     H        0.61230    0.01660    0.30910    1.000
    H922     H        0.64000    0.98160    0.33120    1.000
    H923     H        0.57750    0.98280    0.32900    1.000
    C841     C        0.50150    0.85390    0.28280    1.000
    H924     H        0.53860    0.84490    0.28490    1.000
    H925     H        0.49270    0.85420    0.26400    1.000
    H926     H        0.47990    0.82780    0.29180    1.000
    O287     O        0.39350    0.10930    0.27840    1.000
    H927     H        0.39600    0.13900    0.27100    1.000
    H928     H        0.42200    0.11000    0.28700    1.000
    O288     O        0.67940    0.96760    0.23528    1.000
    O289     O        0.82530    0.04110    0.19306    1.000
    O290     O        0.76120    0.98070    0.18950    1.000
    S289     S        0.86471    0.95026    0.14690    1.000
    S290     S        0.71742    0.09833    0.16663    1.000
    Zn57     Zn       0.75370    0.96021    0.22611    1.000
    Zn58     Zn       0.83832    0.05286    0.23109    1.000
    C842     C        0.29250    0.51510    0.68068    1.000
    C843     C        0.28830    0.52440    0.65150    1.000
    C844     C        0.31860    0.49550    0.63423    1.000
    C845     C        0.25300    0.56150    0.64272    1.000
    C846     C        0.32590    0.39120    0.64470    1.000
    H929     H        0.29690    0.39670    0.63240    1.000
    H930     H        0.34800    0.36230    0.63850    1.000
    H931     H        0.31190    0.38250    0.66210    1.000
    C847     C        0.25930    0.65550    0.66760    1.000
    H932     H        0.26640    0.66750    0.64970    1.000
    H933     H        0.24180    0.68360    0.67740    1.000
    H934     H        0.29240    0.64660    0.67630    1.000
    S291     S        0.16169    0.34427    0.77216    1.000
    S292     S        0.13056    0.21937    0.77525    1.000
    S293     S        0.18549    0.33200    0.77275    1.000
    S294     S        0.15451    0.20626    0.77615    1.000
    O291     O        0.28920    0.38610    0.76440    1.000
    O292     O        0.24820    0.38950    0.72549    1.000
    O293     O        0.31290    0.37220    0.76610    1.000
    O294     O        0.27140    0.37870    0.72780    1.000
    C848     C        0.26530    0.36660    0.74690    1.000
    C849     C        0.25120    0.30920    0.74838    1.000
    C850     C        0.20410    0.29390    0.75964    1.000
    C851     C        0.19106    0.24110    0.76093    1.000
    C852     C        0.27480    0.29640    0.74904    1.000
    C853     C        0.22760    0.28100    0.76030    1.000
    C854     C        0.21458    0.22820    0.76159    1.000
    C855     C        0.28870    0.35400    0.74772    1.000
    C856     C        0.11930    0.35400    0.74440    1.000
    H935     H        0.14040    0.35760    0.72840    1.000
    H936     H        0.09580    0.32380    0.74260    1.000
    H937     H        0.09850    0.38580    0.74700    1.000
    C857     C        0.15100    0.22100    0.80940    1.000
    H938     H        0.18220    0.19910    0.81160    1.000
    H939     H        0.15910    0.25710    0.81440    1.000
    H940     H        0.12260    0.20760    0.82050    1.000
    C858     C        0.13670    0.33360    0.74710    1.000
    H941     H        0.15380    0.32990    0.72990    1.000
    H942     H        0.11780    0.36700    0.74770    1.000
    H943     H        0.11190    0.30470    0.74960    1.000
    C859     C        0.17260    0.21500    0.81020    1.000
    H944     H        0.20930    0.20500    0.81260    1.000
    H945     H        0.15020    0.19320    0.82130    1.000
    H946     H        0.16810    0.25200    0.81510    1.000
    S295     S        0.97882    0.46710    0.79564    1.000
    S296     S        0.10688    0.45913    0.79517    1.000
    S297     S        0.11227    0.42888    0.79648    1.000
    S298     S        0.98930    0.41863    0.79681    1.000
    O295     O        0.91050    0.55520    0.76590    1.000
    O296     O        0.91060    0.49320    0.73470    1.000
    C860     C        0.93160    0.52530    0.75060    1.000
    C861     C        0.99072    0.52290    0.74972    1.000
    C862     C        0.01660    0.49660    0.76978    1.000
    C863     C        0.07100    0.49311    0.76957    1.000
    C864     C        0.09944    0.51600    0.74930    1.000
    C865     C        0.07350    0.45771    0.77076    1.000
    C866     C        0.01920    0.45423    0.77055    1.000
    C867     C        0.96540    0.52440    0.81640    1.000
    H947     H        0.94630    0.51330    0.83210    1.000
    H948     H        0.94420    0.54970    0.80650    1.000
    H949     H        0.99860    0.54080    0.82160    1.000
    C868     C        0.11730    0.51140    0.81910    1.000
    H950     H        0.13440    0.54120    0.81050    1.000
    H951     H        0.13970    0.49850    0.83340    1.000
    H952     H        0.08350    0.52250    0.82630    1.000
    C869     C        0.11030    0.48380    0.81900    1.000
    H953     H        0.11230    0.51660    0.80910    1.000
    H954     H        0.14000    0.48160    0.83120    1.000
    H955     H        0.07750    0.48280    0.82900    1.000
    C870     C        0.00150    0.35390    0.78280    1.000
    H956     H        0.03860    0.34490    0.78490    1.000
    H957     H        0.99270    0.35420    0.76400    1.000
    H958     H        0.97990    0.32780    0.79180    1.000
    O297     O        0.89350    0.60930    0.77840    1.000
    H959     H        0.89600    0.63900    0.77100    1.000
    H960     H        0.92200    0.61000    0.78700    1.000
    O298     O        0.17940    0.46760    0.73528    1.000
    O299     O        0.32530    0.54110    0.69306    1.000
    O300     O        0.26120    0.48070    0.68950    1.000
    S299     S        0.36471    0.45026    0.64690    1.000
    S300     S        0.21742    0.59833    0.66663    1.000
    Zn59     Zn       0.25370    0.46021    0.72611    1.000
    Zn60     Zn       0.33832    0.55286    0.73109    1.000
    C871     C        0.70750    0.98490    0.68068    1.000
    C872     C        0.71170    0.97560    0.65150    1.000
    C873     C        0.68140    0.00450    0.63423    1.000
    C874     C        0.74700    0.93850    0.64272    1.000
    C875     C        0.67410    0.10880    0.64470    1.000
    H961     H        0.70310    0.10330    0.63240    1.000
    H962     H        0.65200    0.13770    0.63850    1.000
    H963     H        0.68810    0.11750    0.66210    1.000
    C876     C        0.74070    0.84450    0.66760    1.000
    H964     H        0.73360    0.83250    0.64970    1.000
    H965     H        0.75820    0.81640    0.67740    1.000
    H966     H        0.70760    0.85340    0.67630    1.000
    S301     S        0.83831    0.15573    0.77216    1.000
    S302     S        0.86944    0.28063    0.77525    1.000
    S303     S        0.81451    0.16800    0.77275    1.000
    S304     S        0.84549    0.29374    0.77615    1.000
    O301     O        0.71080    0.11390    0.76440    1.000
    O302     O        0.75180    0.11050    0.72549    1.000
    O303     O        0.68710    0.12780    0.76610    1.000
    O304     O        0.72860    0.12130    0.72780    1.000
    C877     C        0.73470    0.13340    0.74690    1.000
    C878     C        0.74880    0.19080    0.74838    1.000
    C879     C        0.79590    0.20610    0.75964    1.000
    C880     C        0.80894    0.25890    0.76093    1.000
    C881     C        0.72520    0.20360    0.74904    1.000
    C882     C        0.77240    0.21900    0.76030    1.000
    C883     C        0.78542    0.27180    0.76159    1.000
    C884     C        0.71130    0.14600    0.74772    1.000
    C885     C        0.88070    0.14600    0.74440    1.000
    H967     H        0.85960    0.14240    0.72840    1.000
    H968     H        0.90420    0.17620    0.74260    1.000
    H969     H        0.90150    0.11420    0.74700    1.000
    C886     C        0.84900    0.27900    0.80940    1.000
    H970     H        0.81780    0.30090    0.81160    1.000
    H971     H        0.84090    0.24290    0.81440    1.000
    H972     H        0.87740    0.29240    0.82050    1.000
    C887     C        0.86330    0.16640    0.74710    1.000
    H973     H        0.84620    0.17010    0.72990    1.000
    H974     H        0.88220    0.13300    0.74770    1.000
    H975     H        0.88810    0.19530    0.74960    1.000
    C888     C        0.82740    0.28500    0.81020    1.000
    H976     H        0.79070    0.29500    0.81260    1.000
    H977     H        0.84980    0.30680    0.82130    1.000
    H978     H        0.83190    0.24800    0.81510    1.000
    S305     S        0.02118    0.03290    0.79564    1.000
    S306     S        0.89312    0.04087    0.79517    1.000
    S307     S        0.88773    0.07112    0.79648    1.000
    S308     S        0.01070    0.08137    0.79681    1.000
    O305     O        0.08950    0.94480    0.76590    1.000
    O306     O        0.08940    0.00680    0.73470    1.000
    C889     C        0.06840    0.97470    0.75060    1.000
    C890     C        0.00928    0.97710    0.74972    1.000
    C891     C        0.98340    0.00340    0.76978    1.000
    C892     C        0.92900    0.00689    0.76957    1.000
    C893     C        0.90056    0.98400    0.74930    1.000
    C894     C        0.92650    0.04229    0.77076    1.000
    C895     C        0.98080    0.04577    0.77055    1.000
    C896     C        0.03460    0.97560    0.81640    1.000
    H979     H        0.05370    0.98670    0.83210    1.000
    H980     H        0.05580    0.95030    0.80650    1.000
    H981     H        0.00140    0.95920    0.82160    1.000
    C897     C        0.88270    0.98860    0.81910    1.000
    H982     H        0.86560    0.95880    0.81050    1.000
    H983     H        0.86030    0.00150    0.83340    1.000
    H984     H        0.91650    0.97750    0.82630    1.000
    C898     C        0.88970    0.01620    0.81900    1.000
    H985     H        0.88770    0.98340    0.80910    1.000
    H986     H        0.86000    0.01840    0.83120    1.000
    H987     H        0.92250    0.01720    0.82900    1.000
    C899     C        0.99850    0.14610    0.78280    1.000
    H988     H        0.96140    0.15510    0.78490    1.000
    H989     H        0.00730    0.14580    0.76400    1.000
    H990     H        0.02010    0.17220    0.79180    1.000
    O307     O        0.10650    0.89070    0.77840    1.000
    H991     H        0.10400    0.86100    0.77100    1.000
    H992     H        0.07800    0.89000    0.78700    1.000
    O308     O        0.82060    0.03240    0.73528    1.000
    O309     O        0.67470    0.95890    0.69306    1.000
    O310     O        0.73880    0.01930    0.68950    1.000
    S309     S        0.63529    0.04974    0.64690    1.000
    S310     S        0.78258    0.90167    0.66663    1.000
    Zn61     Zn       0.74630    0.03979    0.72611    1.000
    Zn62     Zn       0.66168    0.94714    0.73109    1.000
    C900     C        0.20750    0.48490    0.18068    1.000
    C901     C        0.21170    0.47560    0.15150    1.000
    C902     C        0.18140    0.50450    0.13423    1.000
    C903     C        0.24700    0.43850    0.14272    1.000
    C904     C        0.17410    0.60880    0.14470    1.000
    H993     H        0.20310    0.60330    0.13240    1.000
    H994     H        0.15200    0.63770    0.13850    1.000
    H995     H        0.18810    0.61750    0.16210    1.000
    C905     C        0.24070    0.34450    0.16760    1.000
    H996     H        0.23360    0.33250    0.14970    1.000
    H997     H        0.25820    0.31640    0.17740    1.000
    H998     H        0.20760    0.35340    0.17630    1.000
    S311     S        0.33831    0.65573    0.27216    1.000
    S312     S        0.36944    0.78063    0.27525    1.000
    S313     S        0.31451    0.66800    0.27275    1.000
    S314     S        0.34549    0.79374    0.27615    1.000
    O311     O        0.21080    0.61390    0.26440    1.000
    O312     O        0.25180    0.61050    0.22549    1.000
    O313     O        0.18710    0.62780    0.26610    1.000
    O314     O        0.22860    0.62130    0.22780    1.000
    C906     C        0.23470    0.63340    0.24690    1.000
    C907     C        0.24880    0.69080    0.24838    1.000
    C908     C        0.29590    0.70610    0.25964    1.000
    C909     C        0.30894    0.75890    0.26093    1.000
    C910     C        0.22520    0.70360    0.24904    1.000
    C911     C        0.27240    0.71900    0.26030    1.000
    C912     C        0.28542    0.77180    0.26159    1.000
    C913     C        0.21130    0.64600    0.24772    1.000
    C914     C        0.38070    0.64600    0.24440    1.000
    H999     H        0.35960    0.64240    0.22840    1.000
    H1000    H        0.40420    0.67620    0.24260    1.000
    H1001    H        0.40150    0.61420    0.24700    1.000
    C915     C        0.34900    0.77900    0.30940    1.000
    H1002    H        0.31780    0.80090    0.31160    1.000
    H1003    H        0.34090    0.74290    0.31440    1.000
    H1004    H        0.37740    0.79240    0.32050    1.000
    C916     C        0.36330    0.66640    0.24710    1.000
    H1005    H        0.34620    0.67010    0.22990    1.000
    H1006    H        0.38220    0.63300    0.24770    1.000
    H1007    H        0.38810    0.69530    0.24960    1.000
    C917     C        0.32740    0.78500    0.31020    1.000
    H1008    H        0.29070    0.79500    0.31260    1.000
    H1009    H        0.34980    0.80680    0.32130    1.000
    H1010    H        0.33190    0.74800    0.31510    1.000
    S315     S        0.52118    0.53290    0.29564    1.000
    S316     S        0.39312    0.54087    0.29517    1.000
    S317     S        0.38773    0.57112    0.29648    1.000
    S318     S        0.51070    0.58137    0.29681    1.000
    O315     O        0.58950    0.44480    0.26590    1.000
    O316     O        0.58940    0.50680    0.23470    1.000
    C918     C        0.56840    0.47470    0.25060    1.000
    C919     C        0.50928    0.47710    0.24972    1.000
    C920     C        0.48340    0.50340    0.26978    1.000
    C921     C        0.42900    0.50689    0.26957    1.000
    C922     C        0.40056    0.48400    0.24930    1.000
    C923     C        0.42650    0.54229    0.27076    1.000
    C924     C        0.48080    0.54577    0.27055    1.000
    C925     C        0.53460    0.47560    0.31640    1.000
    H1011    H        0.55370    0.48670    0.33210    1.000
    H1012    H        0.55580    0.45030    0.30650    1.000
    H1013    H        0.50140    0.45920    0.32160    1.000
    C926     C        0.38270    0.48860    0.31910    1.000
    H1014    H        0.36560    0.45880    0.31050    1.000
    H1015    H        0.36030    0.50150    0.33340    1.000
    H1016    H        0.41650    0.47750    0.32630    1.000
    C927     C        0.38970    0.51620    0.31900    1.000
    H1017    H        0.38770    0.48340    0.30910    1.000
    H1018    H        0.36000    0.51840    0.33120    1.000
    H1019    H        0.42250    0.51720    0.32900    1.000
    C928     C        0.49850    0.64610    0.28280    1.000
    H1020    H        0.46140    0.65510    0.28490    1.000
    H1021    H        0.50730    0.64580    0.26400    1.000
    H1022    H        0.52010    0.67220    0.29180    1.000
    O317     O        0.60650    0.39070    0.27840    1.000
    H1023    H        0.60400    0.36100    0.27100    1.000
    H1024    H        0.57800    0.39000    0.28700    1.000
    O318     O        0.32060    0.53240    0.23528    1.000
    O319     O        0.17470    0.45890    0.19306    1.000
    O320     O        0.23880    0.51930    0.18950    1.000
    S319     S        0.13529    0.54974    0.14690    1.000
    S320     S        0.28258    0.40167    0.16663    1.000
    Zn63     Zn       0.24630    0.53979    0.22611    1.000
    Zn64     Zn       0.16168    0.44714    0.23109    1.000
    C929     C        0.25000    0.09290    0.00000    1.000
    O321     O        0.25000    0.95380    0.00000    1.000
    C930     C        0.75000    0.59290    0.50000    1.000
    O322     O        0.75000    0.45380    0.50000    1.000
    C931     C        0.25000    0.90710    0.50000    1.000
    O323     O        0.25000    0.04620    0.50000    1.000
    C932     C        0.75000    0.40710    0.00000    1.000
    O324     O        0.75000    0.54620    0.00000    1.000
    C933     C        0.15710    0.00000    0.25000    1.000
    O325     O        0.29620    0.00000    0.25000    1.000
    C934     C        0.65710    0.50000    0.75000    1.000
    O326     O        0.79620    0.50000    0.75000    1.000
    C935     C        0.34290    0.00000    0.75000    1.000
    O327     O        0.20380    0.00000    0.75000    1.000
    C936     C        0.84290    0.50000    0.25000    1.000
    O328     O        0.70380    0.50000    0.25000    1.000
    C937     C        0.75000    0.90710    0.00000    1.000
    O329     O        0.75000    0.04620    0.00000    1.000
    C938     C        0.25000    0.40710    0.50000    1.000
    O330     O        0.25000    0.54620    0.50000    1.000
    C939     C        0.75000    0.09290    0.50000    1.000
    O331     O        0.75000    0.95380    0.50000    1.000
    C940     C        0.25000    0.59290    0.00000    1.000
    O332     O        0.25000    0.45380    0.00000    1.000
    C941     C        0.84290    0.00000    0.75000    1.000
    O333     O        0.70380    0.00000    0.75000    1.000
    C942     C        0.34290    0.50000    0.25000    1.000
    O334     O        0.20380    0.50000    0.25000    1.000
    C943     C        0.65710    0.00000    0.25000    1.000
    O335     O        0.79620    0.00000    0.25000    1.000
    C944     C        0.15710    0.50000    0.75000    1.000
    O336     O        0.29620    0.50000    0.75000    1.000
