# CIF file generated by openbabel 3.1.0, see https://openbabel.org
data_I
_chemical_name_common 'image0'
_cell_length_a 14.3551
_cell_length_b 14.3551
_cell_length_c 10.1132
_cell_angle_alpha 90
_cell_angle_beta 90
_cell_angle_gamma 120
_space_group_name_H-M_alt 'P 1'
_space_group_name_Hall 'P 1'
loop_
    _symmetry_equiv_pos_as_xyz
    x,y,z
loop_
    _atom_site_label
    _atom_site_type_symbol
    _atom_site_fract_x
    _atom_site_fract_y
    _atom_site_fract_z
    _atom_site_occupancy
    Sm1      Sm       0.85662    0.44023    0.90361    1.000
    S1       S        0.80665    0.66346    0.94150    1.000
    S2       S        0.99451    0.51923    0.15421    1.000
    O1       O        0.83140    0.70580    0.80760    1.000
    O2       O        0.85400    0.59550    0.97170    1.000
    O3       O        0.84830    0.75270    0.03860    1.000
    O4       O        0.68900    0.59790    0.95950    1.000
    O5       O        0.03080    0.54830    0.01510    1.000
    O6       O        0.87678    0.45060    0.14980    1.000
    O7       O        0.02840    0.61690    0.23640    1.000
    O8       O        0.04740    0.46380    0.21630    1.000
    O9       O        0.72230    0.44410    0.74970    1.000
    Sm2      Sm       0.55977    0.41638    0.90361    1.000
    S3       S        0.33654    0.14319    0.94150    1.000
    S4       S        0.48077    0.47528    0.15421    1.000
    O10      O        0.29420    0.12560    0.80760    1.000
    O11      O        0.40450    0.25850    0.97170    1.000
    O12      O        0.24730    0.09560    0.03860    1.000
    O13      O        0.40210    0.09110    0.95950    1.000
    O14      O        0.45170    0.48250    0.01510    1.000
    O15      O        0.54940    0.42618    0.14980    1.000
    O16      O        0.38310    0.41150    0.23640    1.000
    O17      O        0.53620    0.58360    0.21630    1.000
    O18      O        0.55590    0.27820    0.74970    1.000
    Sm3      Sm       0.58362    0.14338    0.90361    1.000
    S5       S        0.85681    0.19335    0.94150    1.000
    S6       S        0.52472    0.00549    0.15421    1.000
    O19      O        0.87440    0.16860    0.80760    1.000
    O20      O        0.74150    0.14600    0.97170    1.000
    O21      O        0.90440    0.15170    0.03860    1.000
    O22      O        0.90890    0.31100    0.95950    1.000
    O23      O        0.51750    0.96920    0.01510    1.000
    O24      O        0.57382    0.12322    0.14980    1.000
    O25      O        0.58850    0.97160    0.23640    1.000
    O26      O        0.41640    0.95260    0.21630    1.000
    O27      O        0.72180    0.27770    0.74970    1.000
    Sm4      Sm       0.44023    0.85662    0.40361    1.000
    S7       S        0.66346    0.80665    0.44150    1.000
    S8       S        0.51923    0.99451    0.65421    1.000
    O28      O        0.70580    0.83140    0.30760    1.000
    O29      O        0.59550    0.85400    0.47170    1.000
    O30      O        0.75270    0.84830    0.53860    1.000
    O31      O        0.59790    0.68900    0.45950    1.000
    O32      O        0.54830    0.03080    0.51510    1.000
    O33      O        0.45060    0.87678    0.64980    1.000
    O34      O        0.61690    0.02840    0.73640    1.000
    O35      O        0.46380    0.04740    0.71630    1.000
    O36      O        0.44410    0.72230    0.24970    1.000
    Sm5      Sm       0.41638    0.55977    0.40361    1.000
    S9       S        0.14319    0.33654    0.44150    1.000
    S10      S        0.47528    0.48077    0.65421    1.000
    O37      O        0.12560    0.29420    0.30760    1.000
    O38      O        0.25850    0.40450    0.47170    1.000
    O39      O        0.09560    0.24730    0.53860    1.000
    O40      O        0.09110    0.40210    0.45950    1.000
    O41      O        0.48250    0.45170    0.51510    1.000
    O42      O        0.42618    0.54940    0.64980    1.000
    O43      O        0.41150    0.38310    0.73640    1.000
    O44      O        0.58360    0.53620    0.71630    1.000
    O45      O        0.27820    0.55590    0.24970    1.000
    Sm6      Sm       0.14338    0.58362    0.40361    1.000
    S11      S        0.19335    0.85681    0.44150    1.000
    S12      S        0.00549    0.52472    0.65421    1.000
    O46      O        0.16860    0.87440    0.30760    1.000
    O47      O        0.14600    0.74150    0.47170    1.000
    O48      O        0.15170    0.90440    0.53860    1.000
    O49      O        0.31100    0.90890    0.45950    1.000
    O50      O        0.96920    0.51750    0.51510    1.000
    O51      O        0.12322    0.57382    0.64980    1.000
    O52      O        0.97160    0.58850    0.73640    1.000
    O53      O        0.95260    0.41640    0.71630    1.000
    O54      O        0.27770    0.72180    0.24970    1.000
    S13      S        0.66667    0.33333    0.69164    1.000
    O55      O        0.66667    0.33333    0.54980    1.000
    O56      O        0.66667    0.33333    0.99020    1.000
    S14      S        0.33333    0.66667    0.19164    1.000
    O57      O        0.33333    0.66667    0.04980    1.000
    O58      O        0.33333    0.66667    0.49020    1.000
