# CIF file generated by openbabel 3.1.0, see https://openbabel.org
data_I
_chemical_name_common 'image0'
_cell_length_a 19.619
_cell_length_b 15.5116
_cell_length_c 13.2862
_cell_angle_alpha 90
_cell_angle_beta 94.343
_cell_angle_gamma 90
_space_group_name_H-M_alt 'P 1'
_space_group_name_Hall 'P 1'
loop_
    _symmetry_equiv_pos_as_xyz
    x,y,z
loop_
    _atom_site_label
    _atom_site_type_symbol
    _atom_site_fract_x
    _atom_site_fract_y
    _atom_site_fract_z
    _atom_site_occupancy
    Zn1      Zn       0.26816    0.04166    0.66058    1.000
    O1       O        0.33060    0.95170    0.70710    1.000
    O2       O        0.24900    0.90360    0.79800    1.000
    O3       O        0.32520    0.98230    0.97640    1.000
    O4       O        0.31160    0.87260    0.07750    1.000
    O5       O        0.54650    0.62550    0.81910    1.000
    N1       N        0.17210    0.01840    0.59950    1.000
    N2       N        0.25830    0.11900    0.78540    1.000
    C1       C        0.30940    0.90430    0.77580    1.000
    C2       C        0.36210    0.84870    0.82910    1.000
    C3       C        0.40230    0.79420    0.77430    1.000
    H1       H        0.39570    0.79290    0.70430    1.000
    C4       C        0.45160    0.74250    0.82270    1.000
    C5       C        0.46270    0.74320    0.92460    1.000
    H2       H        0.49680    0.70910    0.95650    1.000
    C6       C        0.42270    0.79520    0.98050    1.000
    H3       H        0.42990    0.79510    0.05050    1.000
    C7       C        0.37240    0.84710    0.93530    1.000
    C8       C        0.33300    0.90650    0.99860    1.000
    C9       C        0.12690    0.97260    0.64550    1.000
    H4       H        0.14130    0.94490    0.70540    1.000
    C10      C        0.05920    0.96350    0.60930    1.000
    H5       H        0.02900    0.93120    0.64480    1.000
    C11      C        0.03750    0.00280    0.52080    1.000
    C12      C        0.08410    0.05000    0.47210    1.000
    H6       H        0.07120    0.07660    0.41090    1.000
    C13      C        0.14970    0.05780    0.51380    1.000
    H7       H        0.18010    0.09200    0.48110    1.000
    C14      C        0.20860    0.11560    0.84270    1.000
    H8       H        0.17310    0.07760    0.82450    1.000
    C15      C        0.20330    0.16290    0.92740    1.000
    H9       H        0.16640    0.15480    0.96620    1.000
    C16      C        0.25190    0.22190    0.95550    1.000
    C17      C        0.28510    0.25560    0.87040    1.000
    C18      C        0.28850    0.19820    0.78840    1.000
    C19      C        0.32030    0.20030    0.91540    1.000
    C20      C        0.31980    0.14680    0.83080    1.000
    Zn2      Zn       0.76816    0.54166    0.66058    1.000
    O6       O        0.83060    0.45170    0.70710    1.000
    O7       O        0.74900    0.40360    0.79800    1.000
    O8       O        0.82520    0.48230    0.97640    1.000
    O9       O        0.81160    0.37260    0.07750    1.000
    O10      O        0.04650    0.12550    0.81910    1.000
    N3       N        0.67210    0.51840    0.59950    1.000
    N4       N        0.75830    0.61900    0.78540    1.000
    C21      C        0.80940    0.40430    0.77580    1.000
    C22      C        0.86210    0.34870    0.82910    1.000
    C23      C        0.90230    0.29420    0.77430    1.000
    H10      H        0.89570    0.29290    0.70430    1.000
    C24      C        0.95160    0.24250    0.82270    1.000
    C25      C        0.96270    0.24320    0.92460    1.000
    H11      H        0.99680    0.20910    0.95650    1.000
    C26      C        0.92270    0.29520    0.98050    1.000
    H12      H        0.92990    0.29510    0.05050    1.000
    C27      C        0.87240    0.34710    0.93530    1.000
    C28      C        0.83300    0.40650    0.99860    1.000
    C29      C        0.62690    0.47260    0.64550    1.000
    H13      H        0.64130    0.44490    0.70540    1.000
    C30      C        0.55920    0.46350    0.60930    1.000
    H14      H        0.52900    0.43120    0.64480    1.000
    C31      C        0.53750    0.50280    0.52080    1.000
    C32      C        0.58410    0.55000    0.47210    1.000
    H15      H        0.57120    0.57660    0.41090    1.000
    C33      C        0.64970    0.55780    0.51380    1.000
    H16      H        0.68010    0.59200    0.48110    1.000
    C34      C        0.70860    0.61560    0.84270    1.000
    H17      H        0.67310    0.57760    0.82450    1.000
    C35      C        0.70330    0.66290    0.92740    1.000
    H18      H        0.66640    0.65480    0.96620    1.000
    C36      C        0.75190    0.72190    0.95550    1.000
    C37      C        0.78510    0.75560    0.87040    1.000
    C38      C        0.78850    0.69820    0.78840    1.000
    C39      C        0.82030    0.70030    0.91540    1.000
    C40      C        0.81980    0.64680    0.83080    1.000
    Zn3      Zn       0.73184    0.04166    0.83942    1.000
    O11      O        0.66940    0.95170    0.79290    1.000
    O12      O        0.75100    0.90360    0.70200    1.000
    O13      O        0.67480    0.98230    0.52360    1.000
    O14      O        0.68840    0.87260    0.42250    1.000
    O15      O        0.45350    0.62550    0.68090    1.000
    N5       N        0.82790    0.01840    0.90050    1.000
    N6       N        0.74170    0.11900    0.71460    1.000
    C41      C        0.69060    0.90430    0.72420    1.000
    C42      C        0.63790    0.84870    0.67090    1.000
    C43      C        0.59770    0.79420    0.72570    1.000
    H19      H        0.60430    0.79290    0.79570    1.000
    C44      C        0.54840    0.74250    0.67730    1.000
    C45      C        0.53730    0.74320    0.57540    1.000
    H20      H        0.50320    0.70910    0.54350    1.000
    C46      C        0.57730    0.79520    0.51950    1.000
    H21      H        0.57010    0.79510    0.44950    1.000
    C47      C        0.62760    0.84710    0.56470    1.000
    C48      C        0.66700    0.90650    0.50140    1.000
    C49      C        0.87310    0.97260    0.85450    1.000
    H22      H        0.85870    0.94490    0.79460    1.000
    C50      C        0.94080    0.96350    0.89070    1.000
    H23      H        0.97100    0.93120    0.85520    1.000
    C51      C        0.96250    0.00280    0.97920    1.000
    C52      C        0.91590    0.05000    0.02790    1.000
    H24      H        0.92880    0.07660    0.08910    1.000
    C53      C        0.85030    0.05780    0.98620    1.000
    H25      H        0.81990    0.09200    0.01890    1.000
    C54      C        0.79140    0.11560    0.65730    1.000
    H26      H        0.82690    0.07760    0.67550    1.000
    C55      C        0.79670    0.16290    0.57260    1.000
    H27      H        0.83360    0.15480    0.53380    1.000
    C56      C        0.74810    0.22190    0.54450    1.000
    C57      C        0.71490    0.25560    0.62960    1.000
    C58      C        0.71150    0.19820    0.71160    1.000
    C59      C        0.67970    0.20030    0.58460    1.000
    C60      C        0.68020    0.14680    0.66920    1.000
    Zn4      Zn       0.23184    0.54166    0.83942    1.000
    O16      O        0.16940    0.45170    0.79290    1.000
    O17      O        0.25100    0.40360    0.70200    1.000
    O18      O        0.17480    0.48230    0.52360    1.000
    O19      O        0.18840    0.37260    0.42250    1.000
    O20      O        0.95350    0.12550    0.68090    1.000
    N7       N        0.32790    0.51840    0.90050    1.000
    N8       N        0.24170    0.61900    0.71460    1.000
    C61      C        0.19060    0.40430    0.72420    1.000
    C62      C        0.13790    0.34870    0.67090    1.000
    C63      C        0.09770    0.29420    0.72570    1.000
    H28      H        0.10430    0.29290    0.79570    1.000
    C64      C        0.04840    0.24250    0.67730    1.000
    C65      C        0.03730    0.24320    0.57540    1.000
    H29      H        0.00320    0.20910    0.54350    1.000
    C66      C        0.07730    0.29520    0.51950    1.000
    H30      H        0.07010    0.29510    0.44950    1.000
    C67      C        0.12760    0.34710    0.56470    1.000
    C68      C        0.16700    0.40650    0.50140    1.000
    C69      C        0.37310    0.47260    0.85450    1.000
    H31      H        0.35870    0.44490    0.79460    1.000
    C70      C        0.44080    0.46350    0.89070    1.000
    H32      H        0.47100    0.43120    0.85520    1.000
    C71      C        0.46250    0.50280    0.97920    1.000
    C72      C        0.41590    0.55000    0.02790    1.000
    H33      H        0.42880    0.57660    0.08910    1.000
    C73      C        0.35030    0.55780    0.98620    1.000
    H34      H        0.31990    0.59200    0.01890    1.000
    C74      C        0.29140    0.61560    0.65730    1.000
    H35      H        0.32690    0.57760    0.67550    1.000
    C75      C        0.29670    0.66290    0.57260    1.000
    H36      H        0.33360    0.65480    0.53380    1.000
    C76      C        0.24810    0.72190    0.54450    1.000
    C77      C        0.21490    0.75560    0.62960    1.000
    C78      C        0.21150    0.69820    0.71160    1.000
    C79      C        0.17970    0.70030    0.58460    1.000
    C80      C        0.18020    0.64680    0.66920    1.000
    Zn5      Zn       0.73184    0.95834    0.33942    1.000
    O21      O        0.66940    0.04830    0.29290    1.000
    O22      O        0.75100    0.09640    0.20200    1.000
    O23      O        0.67480    0.01770    0.02360    1.000
    O24      O        0.68840    0.12740    0.92250    1.000
    O25      O        0.45350    0.37450    0.18090    1.000
    N9       N        0.82790    0.98160    0.40050    1.000
    N10      N        0.74170    0.88100    0.21460    1.000
    C81      C        0.69060    0.09570    0.22420    1.000
    C82      C        0.63790    0.15130    0.17090    1.000
    C83      C        0.59770    0.20580    0.22570    1.000
    H37      H        0.60430    0.20710    0.29570    1.000
    C84      C        0.54840    0.25750    0.17730    1.000
    C85      C        0.53730    0.25680    0.07540    1.000
    H38      H        0.50320    0.29090    0.04350    1.000
    C86      C        0.57730    0.20480    0.01950    1.000
    H39      H        0.57010    0.20490    0.94950    1.000
    C87      C        0.62760    0.15290    0.06470    1.000
    C88      C        0.66700    0.09350    0.00140    1.000
    C89      C        0.87310    0.02740    0.35450    1.000
    H40      H        0.85870    0.05510    0.29460    1.000
    C90      C        0.94080    0.03650    0.39070    1.000
    H41      H        0.97100    0.06880    0.35520    1.000
    C91      C        0.96250    0.99720    0.47920    1.000
    C92      C        0.91590    0.95000    0.52790    1.000
    H42      H        0.92880    0.92340    0.58910    1.000
    C93      C        0.85030    0.94220    0.48620    1.000
    H43      H        0.81990    0.90800    0.51890    1.000
    C94      C        0.79140    0.88440    0.15730    1.000
    H44      H        0.82690    0.92240    0.17550    1.000
    C95      C        0.79670    0.83710    0.07260    1.000
    H45      H        0.83360    0.84520    0.03380    1.000
    C96      C        0.74810    0.77810    0.04450    1.000
    C97      C        0.71490    0.74440    0.12960    1.000
    C98      C        0.71150    0.80180    0.21160    1.000
    C99      C        0.67970    0.79970    0.08460    1.000
    C100     C        0.68020    0.85320    0.16920    1.000
    Zn6      Zn       0.23184    0.45834    0.33942    1.000
    O26      O        0.16940    0.54830    0.29290    1.000
    O27      O        0.25100    0.59640    0.20200    1.000
    O28      O        0.17480    0.51770    0.02360    1.000
    O29      O        0.18840    0.62740    0.92250    1.000
    O30      O        0.95350    0.87450    0.18090    1.000
    N11      N        0.32790    0.48160    0.40050    1.000
    N12      N        0.24170    0.38100    0.21460    1.000
    C101     C        0.19060    0.59570    0.22420    1.000
    C102     C        0.13790    0.65130    0.17090    1.000
    C103     C        0.09770    0.70580    0.22570    1.000
    H46      H        0.10430    0.70710    0.29570    1.000
    C104     C        0.04840    0.75750    0.17730    1.000
    C105     C        0.03730    0.75680    0.07540    1.000
    H47      H        0.00320    0.79090    0.04350    1.000
    C106     C        0.07730    0.70480    0.01950    1.000
    H48      H        0.07010    0.70490    0.94950    1.000
    C107     C        0.12760    0.65290    0.06470    1.000
    C108     C        0.16700    0.59350    0.00140    1.000
    C109     C        0.37310    0.52740    0.35450    1.000
    H49      H        0.35870    0.55510    0.29460    1.000
    C110     C        0.44080    0.53650    0.39070    1.000
    H50      H        0.47100    0.56880    0.35520    1.000
    C111     C        0.46250    0.49720    0.47920    1.000
    C112     C        0.41590    0.45000    0.52790    1.000
    H51      H        0.42880    0.42340    0.58910    1.000
    C113     C        0.35030    0.44220    0.48620    1.000
    H52      H        0.31990    0.40800    0.51890    1.000
    C114     C        0.29140    0.38440    0.15730    1.000
    H53      H        0.32690    0.42240    0.17550    1.000
    C115     C        0.29670    0.33710    0.07260    1.000
    H54      H        0.33360    0.34520    0.03380    1.000
    C116     C        0.24810    0.27810    0.04450    1.000
    C117     C        0.21490    0.24440    0.12960    1.000
    C118     C        0.21150    0.30180    0.21160    1.000
    C119     C        0.17970    0.29970    0.08460    1.000
    C120     C        0.18020    0.35320    0.16920    1.000
    Zn7      Zn       0.26816    0.95834    0.16058    1.000
    O31      O        0.33060    0.04830    0.20710    1.000
    O32      O        0.24900    0.09640    0.29800    1.000
    O33      O        0.32520    0.01770    0.47640    1.000
    O34      O        0.31160    0.12740    0.57750    1.000
    O35      O        0.54650    0.37450    0.31910    1.000
    N13      N        0.17210    0.98160    0.09950    1.000
    N14      N        0.25830    0.88100    0.28540    1.000
    C121     C        0.30940    0.09570    0.27580    1.000
    C122     C        0.36210    0.15130    0.32910    1.000
    C123     C        0.40230    0.20580    0.27430    1.000
    H55      H        0.39570    0.20710    0.20430    1.000
    C124     C        0.45160    0.25750    0.32270    1.000
    C125     C        0.46270    0.25680    0.42460    1.000
    H56      H        0.49680    0.29090    0.45650    1.000
    C126     C        0.42270    0.20480    0.48050    1.000
    H57      H        0.42990    0.20490    0.55050    1.000
    C127     C        0.37240    0.15290    0.43530    1.000
    C128     C        0.33300    0.09350    0.49860    1.000
    C129     C        0.12690    0.02740    0.14550    1.000
    H58      H        0.14130    0.05510    0.20540    1.000
    C130     C        0.05920    0.03650    0.10930    1.000
    H59      H        0.02900    0.06880    0.14480    1.000
    C131     C        0.03750    0.99720    0.02080    1.000
    C132     C        0.08410    0.95000    0.97210    1.000
    H60      H        0.07120    0.92340    0.91090    1.000
    C133     C        0.14970    0.94220    0.01380    1.000
    H61      H        0.18010    0.90800    0.98110    1.000
    C134     C        0.20860    0.88440    0.34270    1.000
    H62      H        0.17310    0.92240    0.32450    1.000
    C135     C        0.20330    0.83710    0.42740    1.000
    H63      H        0.16640    0.84520    0.46620    1.000
    C136     C        0.25190    0.77810    0.45550    1.000
    C137     C        0.28510    0.74440    0.37040    1.000
    C138     C        0.28850    0.80180    0.28840    1.000
    C139     C        0.32030    0.79970    0.41540    1.000
    C140     C        0.31980    0.85320    0.33080    1.000
    Zn8      Zn       0.76816    0.45834    0.16058    1.000
    O36      O        0.83060    0.54830    0.20710    1.000
    O37      O        0.74900    0.59640    0.29800    1.000
    O38      O        0.82520    0.51770    0.47640    1.000
    O39      O        0.81160    0.62740    0.57750    1.000
    O40      O        0.04650    0.87450    0.31910    1.000
    N15      N        0.67210    0.48160    0.09950    1.000
    N16      N        0.75830    0.38100    0.28540    1.000
    C141     C        0.80940    0.59570    0.27580    1.000
    C142     C        0.86210    0.65130    0.32910    1.000
    C143     C        0.90230    0.70580    0.27430    1.000
    H64      H        0.89570    0.70710    0.20430    1.000
    C144     C        0.95160    0.75750    0.32270    1.000
    C145     C        0.96270    0.75680    0.42460    1.000
    H65      H        0.99680    0.79090    0.45650    1.000
    C146     C        0.92270    0.70480    0.48050    1.000
    H66      H        0.92990    0.70490    0.55050    1.000
    C147     C        0.87240    0.65290    0.43530    1.000
    C148     C        0.83300    0.59350    0.49860    1.000
    C149     C        0.62690    0.52740    0.14550    1.000
    H67      H        0.64130    0.55510    0.20540    1.000
    C150     C        0.55920    0.53650    0.10930    1.000
    H68      H        0.52900    0.56880    0.14480    1.000
    C151     C        0.53750    0.49720    0.02080    1.000
    C152     C        0.58410    0.45000    0.97210    1.000
    H69      H        0.57120    0.42340    0.91090    1.000
    C153     C        0.64970    0.44220    0.01380    1.000
    H70      H        0.68010    0.40800    0.98110    1.000
    C154     C        0.70860    0.38440    0.34270    1.000
    H71      H        0.67310    0.42240    0.32450    1.000
    C155     C        0.70330    0.33710    0.42740    1.000
    H72      H        0.66640    0.34520    0.46620    1.000
    C156     C        0.75190    0.27810    0.45550    1.000
    C157     C        0.78510    0.24440    0.37040    1.000
    C158     C        0.78850    0.30180    0.28840    1.000
    C159     C        0.82030    0.29970    0.41540    1.000
    C160     C        0.81980    0.35320    0.33080    1.000
    S1       S        0.50000    0.67290    0.75000    1.000
    S2       S        0.00000    0.17290    0.75000    1.000
    S3       S        0.50000    0.32710    0.25000    1.000
    S4       S        0.00000    0.82710    0.25000    1.000
