# CIF file generated by openbabel 3.1.0, see https://openbabel.org
data_I
_chemical_name_common 'image0'
_cell_length_a 15.9131
_cell_length_b 13.5396
_cell_length_c 6.6475
_cell_angle_alpha 90
_cell_angle_beta 97.662
_cell_angle_gamma 90
_space_group_name_H-M_alt 'P 1'
_space_group_name_Hall 'P 1'
loop_
    _symmetry_equiv_pos_as_xyz
    x,y,z
loop_
    _atom_site_label
    _atom_site_type_symbol
    _atom_site_fract_x
    _atom_site_fract_y
    _atom_site_fract_z
    _atom_site_occupancy
    Eu1      Eu       0.25087    0.06030    0.46874    1.000
    C1       C        0.35820    0.88680    0.52000    1.000
    C2       C        0.41340    0.79620    0.55510    1.000
    C3       C        0.37670    0.70280    0.55200    1.000
    H1       H        0.31790    0.69860    0.52500    1.000
    C4       C        0.50490    0.62650    0.62000    1.000
    H2       H        0.53640    0.56880    0.64310    1.000
    C5       C        0.54820    0.71570    0.62350    1.000
    C6       C        0.50100    0.80270    0.59240    1.000
    H3       H        0.52780    0.86380    0.59680    1.000
    C7       C        0.64380    0.71710    0.66050    1.000
    C8       C        0.10090    0.04960    0.17000    1.000
    C9       C        0.02140    0.04760    0.01220    1.000
    H4       H        0.98160    0.09620    0.05040    1.000
    H5       H        0.03710    0.06740    0.88210    1.000
    N1       N        0.42040    0.61890    0.58530    1.000
    O1       O        0.38910    0.96990    0.56170    1.000
    O2       O        0.28170    0.87580    0.44810    1.000
    O3       O        0.68070    0.63730    0.71140    1.000
    O4       O        0.67980    0.79640    0.63250    1.000
    O5       O        0.11280    0.98800    0.30950    1.000
    O6       O        0.15160    0.11840    0.15650    1.000
    Eu2      Eu       0.74913    0.56030    0.03126    1.000
    C10      C        0.64180    0.38680    0.98000    1.000
    C11      C        0.58660    0.29620    0.94490    1.000
    C12      C        0.62330    0.20280    0.94800    1.000
    H6       H        0.68210    0.19860    0.97500    1.000
    C13      C        0.49510    0.12650    0.88000    1.000
    H7       H        0.46360    0.06880    0.85690    1.000
    C14      C        0.45180    0.21570    0.87650    1.000
    C15      C        0.49900    0.30270    0.90760    1.000
    H8       H        0.47220    0.36380    0.90320    1.000
    C16      C        0.35620    0.21710    0.83950    1.000
    C17      C        0.89910    0.54960    0.33000    1.000
    C18      C        0.97860    0.54760    0.48780    1.000
    H9       H        0.01840    0.59620    0.44960    1.000
    H10      H        0.96290    0.56740    0.61790    1.000
    N2       N        0.57960    0.11890    0.91470    1.000
    O7       O        0.61090    0.46990    0.93830    1.000
    O8       O        0.71830    0.37580    0.05190    1.000
    O9       O        0.31930    0.13730    0.78860    1.000
    O10      O        0.32020    0.29640    0.86750    1.000
    O11      O        0.88720    0.48800    0.19050    1.000
    O12      O        0.84840    0.61840    0.34350    1.000
    Eu3      Eu       0.74913    0.93970    0.53126    1.000
    C19      C        0.64180    0.11320    0.48000    1.000
    C20      C        0.58660    0.20380    0.44490    1.000
    C21      C        0.62330    0.29720    0.44800    1.000
    H11      H        0.68210    0.30140    0.47500    1.000
    C22      C        0.49510    0.37350    0.38000    1.000
    H12      H        0.46360    0.43120    0.35690    1.000
    C23      C        0.45180    0.28430    0.37650    1.000
    C24      C        0.49900    0.19730    0.40760    1.000
    H13      H        0.47220    0.13620    0.40320    1.000
    C25      C        0.35620    0.28290    0.33950    1.000
    C26      C        0.89910    0.95040    0.83000    1.000
    C27      C        0.97860    0.95240    0.98780    1.000
    H14      H        0.01840    0.90380    0.94960    1.000
    H15      H        0.96290    0.93260    0.11790    1.000
    N3       N        0.57960    0.38110    0.41470    1.000
    O13      O        0.61090    0.03010    0.43830    1.000
    O14      O        0.71830    0.12420    0.55190    1.000
    O15      O        0.31930    0.36270    0.28860    1.000
    O16      O        0.32020    0.20360    0.36750    1.000
    O17      O        0.88720    0.01200    0.69050    1.000
    O18      O        0.84840    0.88160    0.84350    1.000
    Eu4      Eu       0.25087    0.43970    0.96874    1.000
    C28      C        0.35820    0.61320    0.02000    1.000
    C29      C        0.41340    0.70380    0.05510    1.000
    C30      C        0.37670    0.79720    0.05200    1.000
    H16      H        0.31790    0.80140    0.02500    1.000
    C31      C        0.50490    0.87350    0.12000    1.000
    H17      H        0.53640    0.93120    0.14310    1.000
    C32      C        0.54820    0.78430    0.12350    1.000
    C33      C        0.50100    0.69730    0.09240    1.000
    H18      H        0.52780    0.63620    0.09680    1.000
    C34      C        0.64380    0.78290    0.16050    1.000
    C35      C        0.10090    0.45040    0.67000    1.000
    C36      C        0.02140    0.45240    0.51220    1.000
    H19      H        0.98160    0.40380    0.55040    1.000
    H20      H        0.03710    0.43260    0.38210    1.000
    N4       N        0.42040    0.88110    0.08530    1.000
    O19      O        0.38910    0.53010    0.06170    1.000
    O20      O        0.28170    0.62420    0.94810    1.000
    O21      O        0.68070    0.86270    0.21140    1.000
    O22      O        0.67980    0.70360    0.13250    1.000
    O23      O        0.11280    0.51200    0.80950    1.000
    O24      O        0.15160    0.38160    0.65650    1.000
