# CIF file generated by openbabel 3.1.0, see https://openbabel.org
data_I
_chemical_name_common 'image0'
_cell_length_a 7.675
_cell_length_b 7.675
_cell_length_c 8.056
_cell_angle_alpha 90
_cell_angle_beta 90
_cell_angle_gamma 90
_space_group_name_H-M_alt 'P 1'
_space_group_name_Hall 'P 1'
loop_
    _symmetry_equiv_pos_as_xyz
    x,y,z
loop_
    _atom_site_label
    _atom_site_type_symbol
    _atom_site_fract_x
    _atom_site_fract_y
    _atom_site_fract_z
    _atom_site_occupancy
    Cd1      Cd       0.00000    0.00000    0.00000    1.000
    Ni1      Ni       0.50000    0.50000    0.00000    1.000
    N1       N        0.22110    0.22110    0.00000    1.000
    C1       C        0.32830    0.32830    0.00000    1.000
    N2       N        0.77890    0.77890    0.00000    1.000
    C2       C        0.67170    0.67170    0.00000    1.000
    N3       N        0.77890    0.22110    0.00000    1.000
    C3       C        0.67170    0.32830    0.00000    1.000
    N4       N        0.22110    0.77890    0.00000    1.000
    C4       C        0.32830    0.67170    0.00000    1.000
    C5       C        0.00000    0.00000    0.41590    1.000
    C6       C        0.00000    0.00000    0.58410    1.000
    N5       N        0.00000    0.07400    0.27400    1.000
    N6       N        0.00000    0.92600    0.27400    1.000
    N7       N        0.92600    0.00000    0.27400    1.000
    N8       N        0.07400    0.00000    0.27400    1.000
    N9       N        0.00000    0.07400    0.72600    1.000
    N10      N        0.00000    0.92600    0.72600    1.000
    N11      N        0.07400    0.00000    0.72600    1.000
    N12      N        0.92600    0.00000    0.72600    1.000
