# CIF file generated by openbabel 3.1.0, see https://openbabel.org
data_I
_chemical_name_common 'image0'
_cell_length_a 13.543
_cell_length_b 19.3401
_cell_length_c 23.223
_cell_angle_alpha 90
_cell_angle_beta 123.452
_cell_angle_gamma 90
_space_group_name_H-M_alt 'P 1'
_space_group_name_Hall 'P 1'
loop_
    _symmetry_equiv_pos_as_xyz
    x,y,z
loop_
    _atom_site_label
    _atom_site_type_symbol
    _atom_site_fract_x
    _atom_site_fract_y
    _atom_site_fract_z
    _atom_site_occupancy
    Fe1      Fe       0.60984    0.23067    0.26542    1.000
    O1       O        0.93200    0.65090    0.19220    1.000
    O2       O        0.10760    0.60620    0.25360    1.000
    C1       C        0.00200    0.60200    0.22710    1.000
    Fe2      Fe       0.12897    0.23704    0.28948    1.000
    C2       C        0.09500    0.22950    0.14880    1.000
    O3       O        0.24250    0.25100    0.90150    1.000
    O4       O        0.49140    0.25490    0.15330    1.000
    O5       O        0.31780    0.26670    0.84180    1.000
    O6       O        0.97570    0.29510    0.26620    1.000
    O7       O        0.68030    0.25040    0.20510    1.000
    O8       O        0.11510    0.34840    0.26770    1.000
    O9       O        0.51900    0.67190    0.22700    1.000
    C3       C        0.87190    0.26330    0.96340    1.000
    C4       C        0.88060    0.24200    0.08020    1.000
    H1       H        0.88410    0.23340    0.12070    1.000
    C5       C        0.55950    0.43040    0.26770    1.000
    C6       C        0.00470    0.47540    0.24330    1.000
    H2       H        0.07310    0.47310    0.24310    1.000
    O10      O        0.57390    0.31370    0.29810    1.000
    C7       C        0.76880    0.26530    0.96210    1.000
    H3       H        0.69680    0.27380    0.92090    1.000
    C8       C        0.98080    0.24120    0.08290    1.000
    O11      O        0.96300    0.27510    0.90250    1.000
    O12      O        0.41700    0.62170    0.26010    1.000
    O13      O        0.77370    0.28450    0.84490    1.000
    C9       C        0.58050    0.25600    0.15160    1.000
    C10      C        0.33160    0.25780    0.89800    1.000
    C11      C        0.80420    0.48250    0.24570    1.000
    C12      C        0.86090    0.42090    0.25280    1.000
    H4       H        0.83030    0.38050    0.25880    1.000
    C13      C        0.95860    0.41650    0.25140    1.000
    C14      C        0.95220    0.53750    0.23560    1.000
    C15      C        0.70100    0.48660    0.25130    1.000
    C16      C        0.97850    0.25140    0.02390    1.000
    H5       H        0.04800    0.25020    0.02480    1.000
    C17      C        0.46200    0.25820    0.02450    1.000
    H6       H        0.39450    0.25730    0.02580    1.000
    C18      C        0.56950    0.25970    0.08430    1.000
    C19      C        0.64570    0.54750    0.24530    1.000
    H7       H        0.67350    0.58770    0.23690    1.000
    C20      C        0.45000    0.25780    0.96220    1.000
    C21      C        0.65640    0.42860    0.26200    1.000
    H8       H        0.69200    0.38620    0.26570    1.000
    O14      O        0.18780    0.24350    0.15320    1.000
    C22      C        0.02030    0.35130    0.26220    1.000
    C23      C        0.85130    0.54020    0.23600    1.000
    H9       H        0.81390    0.58250    0.22940    1.000
    C24      C        0.49290    0.61920    0.24670    1.000
    C25      C        0.55090    0.55170    0.25120    1.000
    O15      O        0.09270    0.20680    0.19830    1.000
    C26      C        0.66840    0.25940    0.08180    1.000
    H10      H        0.74240    0.26070    0.12310    1.000
    C27      C        0.50660    0.49320    0.26240    1.000
    H11      H        0.44200    0.49580    0.26630    1.000
    O16      O        0.41280    0.36820    0.26870    1.000
    C28      C        0.50990    0.36560    0.27820    1.000
    C29      C        0.77250    0.25470    0.02150    1.000
    C30      C        0.86970    0.27440    0.89980    1.000
    C31      C        0.66290    0.25730    0.02180    1.000
    C32      C        0.55010    0.25610    0.96080    1.000
    H12      H        0.54270    0.25390    0.91860    1.000
    Na1      Na       0.87190    0.21381    0.28198    1.000
    Na2      Na       0.35350    0.25600    0.26014    1.000
    Na3      Na       0.84870    0.65999    0.05722    1.000
    Fe3      Fe       0.39016    0.73067    0.23458    1.000
    O17      O        0.06800    0.15090    0.30780    1.000
    O18      O        0.89240    0.10620    0.24640    1.000
    C33      C        0.99800    0.10200    0.27290    1.000
    Fe4      Fe       0.87103    0.73704    0.21052    1.000
    C34      C        0.90500    0.72950    0.35120    1.000
    O19      O        0.75750    0.75100    0.59850    1.000
    O20      O        0.50860    0.75490    0.34670    1.000
    O21      O        0.68220    0.76670    0.65820    1.000
    O22      O        0.02430    0.79510    0.23380    1.000
    O23      O        0.31970    0.75040    0.29490    1.000
    O24      O        0.88490    0.84840    0.23230    1.000
    O25      O        0.48100    0.17190    0.27300    1.000
    C35      C        0.12810    0.76330    0.53660    1.000
    C36      C        0.11940    0.74200    0.41980    1.000
    H13      H        0.11590    0.73340    0.37930    1.000
    C37      C        0.44050    0.93040    0.23230    1.000
    C38      C        0.99530    0.97540    0.25670    1.000
    H14      H        0.92690    0.97310    0.25690    1.000
    O26      O        0.42610    0.81370    0.20190    1.000
    C39      C        0.23120    0.76530    0.53790    1.000
    H15      H        0.30320    0.77380    0.57910    1.000
    C40      C        0.01920    0.74120    0.41710    1.000
    O27      O        0.03700    0.77510    0.59750    1.000
    O28      O        0.58300    0.12170    0.23990    1.000
    O29      O        0.22630    0.78450    0.65510    1.000
    C41      C        0.41950    0.75600    0.34840    1.000
    C42      C        0.66840    0.75780    0.60200    1.000
    C43      C        0.19580    0.98250    0.25430    1.000
    C44      C        0.13910    0.92090    0.24720    1.000
    H16      H        0.16970    0.88050    0.24120    1.000
    C45      C        0.04140    0.91650    0.24860    1.000
    C46      C        0.04780    0.03750    0.26440    1.000
    C47      C        0.29900    0.98660    0.24870    1.000
    C48      C        0.02150    0.75140    0.47610    1.000
    H17      H        0.95200    0.75020    0.47520    1.000
    C49      C        0.53800    0.75820    0.47550    1.000
    H18      H        0.60550    0.75730    0.47420    1.000
    C50      C        0.43050    0.75970    0.41570    1.000
    C51      C        0.35430    0.04750    0.25470    1.000
    H19      H        0.32650    0.08770    0.26310    1.000
    C52      C        0.55000    0.75780    0.53780    1.000
    C53      C        0.34360    0.92860    0.23800    1.000
    H20      H        0.30800    0.88620    0.23430    1.000
    O30      O        0.81220    0.74350    0.34680    1.000
    C54      C        0.97970    0.85130    0.23780    1.000
    C55      C        0.14870    0.04020    0.26400    1.000
    H21      H        0.18610    0.08250    0.27060    1.000
    C56      C        0.50710    0.11920    0.25330    1.000
    C57      C        0.44910    0.05170    0.24880    1.000
    O31      O        0.90730    0.70680    0.30170    1.000
    C58      C        0.33160    0.75940    0.41820    1.000
    H22      H        0.25760    0.76070    0.37690    1.000
    C59      C        0.49340    0.99320    0.23760    1.000
    H23      H        0.55800    0.99580    0.23370    1.000
    O32      O        0.58720    0.86820    0.23130    1.000
    C60      C        0.49010    0.86560    0.22180    1.000
    C61      C        0.22750    0.75470    0.47850    1.000
    C62      C        0.13030    0.77440    0.60020    1.000
    C63      C        0.33710    0.75730    0.47820    1.000
    C64      C        0.44990    0.75610    0.53920    1.000
    H24      H        0.45730    0.75390    0.58140    1.000
    Na4      Na       0.12810    0.71381    0.21802    1.000
    Na5      Na       0.64650    0.75600    0.23986    1.000
    Na6      Na       0.15130    0.15999    0.44278    1.000
    Fe5      Fe       0.39016    0.76933    0.73458    1.000
    O33      O        0.06800    0.34910    0.80780    1.000
    O34      O        0.89240    0.39380    0.74640    1.000
    C65      C        0.99800    0.39800    0.77290    1.000
    Fe6      Fe       0.87103    0.76296    0.71052    1.000
    C66      C        0.90500    0.77050    0.85120    1.000
    O35      O        0.75750    0.74900    0.09850    1.000
    O36      O        0.50860    0.74510    0.84670    1.000
    O37      O        0.68220    0.73330    0.15820    1.000
    O38      O        0.02430    0.70490    0.73380    1.000
    O39      O        0.31970    0.74960    0.79490    1.000
    O40      O        0.88490    0.65160    0.73230    1.000
    O41      O        0.48100    0.32810    0.77300    1.000
    C67      C        0.12810    0.73670    0.03660    1.000
    C68      C        0.11940    0.75800    0.91980    1.000
    H25      H        0.11590    0.76660    0.87930    1.000
    C69      C        0.44050    0.56960    0.73230    1.000
    C70      C        0.99530    0.52460    0.75670    1.000
    H26      H        0.92690    0.52690    0.75690    1.000
    O42      O        0.42610    0.68630    0.70190    1.000
    C71      C        0.23120    0.73470    0.03790    1.000
    H27      H        0.30320    0.72620    0.07910    1.000
    C72      C        0.01920    0.75880    0.91710    1.000
    O43      O        0.03700    0.72490    0.09750    1.000
    O44      O        0.58300    0.37830    0.73990    1.000
    O45      O        0.22630    0.71550    0.15510    1.000
    C73      C        0.41950    0.74400    0.84840    1.000
    C74      C        0.66840    0.74220    0.10200    1.000
    C75      C        0.19580    0.51750    0.75430    1.000
    C76      C        0.13910    0.57910    0.74720    1.000
    H28      H        0.16970    0.61950    0.74120    1.000
    C77      C        0.04140    0.58350    0.74860    1.000
    C78      C        0.04780    0.46250    0.76440    1.000
    C79      C        0.29900    0.51340    0.74870    1.000
    C80      C        0.02150    0.74860    0.97610    1.000
    H29      H        0.95200    0.74980    0.97520    1.000
    C81      C        0.53800    0.74180    0.97550    1.000
    H30      H        0.60550    0.74270    0.97420    1.000
    C82      C        0.43050    0.74030    0.91570    1.000
    C83      C        0.35430    0.45250    0.75470    1.000
    H31      H        0.32650    0.41230    0.76310    1.000
    C84      C        0.55000    0.74220    0.03780    1.000
    C85      C        0.34360    0.57140    0.73800    1.000
    H32      H        0.30800    0.61380    0.73430    1.000
    O46      O        0.81220    0.75650    0.84680    1.000
    C86      C        0.97970    0.64870    0.73780    1.000
    C87      C        0.14870    0.45980    0.76400    1.000
    H33      H        0.18610    0.41750    0.77060    1.000
    C88      C        0.50710    0.38080    0.75330    1.000
    C89      C        0.44910    0.44830    0.74880    1.000
    O47      O        0.90730    0.79320    0.80170    1.000
    C90      C        0.33160    0.74060    0.91820    1.000
    H34      H        0.25760    0.73930    0.87690    1.000
    C91      C        0.49340    0.50680    0.73760    1.000
    H35      H        0.55800    0.50420    0.73370    1.000
    O48      O        0.58720    0.63180    0.73130    1.000
    C92      C        0.49010    0.63440    0.72180    1.000
    C93      C        0.22750    0.74530    0.97850    1.000
    C94      C        0.13030    0.72560    0.10020    1.000
    C95      C        0.33710    0.74270    0.97820    1.000
    C96      C        0.44990    0.74390    0.03920    1.000
    H36      H        0.45730    0.74610    0.08140    1.000
    Na7      Na       0.12810    0.78619    0.71802    1.000
    Na8      Na       0.64650    0.74400    0.73986    1.000
    Na9      Na       0.15130    0.34001    0.94278    1.000
    Fe7      Fe       0.60984    0.26933    0.76542    1.000
    O49      O        0.93200    0.84910    0.69220    1.000
    O50      O        0.10760    0.89380    0.75360    1.000
    C97      C        0.00200    0.89800    0.72710    1.000
    Fe8      Fe       0.12897    0.26296    0.78948    1.000
    C98      C        0.09500    0.27050    0.64880    1.000
    O51      O        0.24250    0.24900    0.40150    1.000
    O52      O        0.49140    0.24510    0.65330    1.000
    O53      O        0.31780    0.23330    0.34180    1.000
    O54      O        0.97570    0.20490    0.76620    1.000
    O55      O        0.68030    0.24960    0.70510    1.000
    O56      O        0.11510    0.15160    0.76770    1.000
    O57      O        0.51900    0.82810    0.72700    1.000
    C99      C        0.87190    0.23670    0.46340    1.000
    C100     C        0.88060    0.25800    0.58020    1.000
    H37      H        0.88410    0.26660    0.62070    1.000
    C101     C        0.55950    0.06960    0.76770    1.000
    C102     C        0.00470    0.02460    0.74330    1.000
    H38      H        0.07310    0.02690    0.74310    1.000
    O58      O        0.57390    0.18630    0.79810    1.000
    C103     C        0.76880    0.23470    0.46210    1.000
    H39      H        0.69680    0.22620    0.42090    1.000
    C104     C        0.98080    0.25880    0.58290    1.000
    O59      O        0.96300    0.22490    0.40250    1.000
    O60      O        0.41700    0.87830    0.76010    1.000
    O61      O        0.77370    0.21550    0.34490    1.000
    C105     C        0.58050    0.24400    0.65160    1.000
    C106     C        0.33160    0.24220    0.39800    1.000
    C107     C        0.80420    0.01750    0.74570    1.000
    C108     C        0.86090    0.07910    0.75280    1.000
    H40      H        0.83030    0.11950    0.75880    1.000
    C109     C        0.95860    0.08350    0.75140    1.000
    C110     C        0.95220    0.96250    0.73560    1.000
    C111     C        0.70100    0.01340    0.75130    1.000
    C112     C        0.97850    0.24860    0.52390    1.000
    H41      H        0.04800    0.24980    0.52480    1.000
    C113     C        0.46200    0.24180    0.52450    1.000
    H42      H        0.39450    0.24270    0.52580    1.000
    C114     C        0.56950    0.24030    0.58430    1.000
    C115     C        0.64570    0.95250    0.74530    1.000
    H43      H        0.67350    0.91230    0.73690    1.000
    C116     C        0.45000    0.24220    0.46220    1.000
    C117     C        0.65640    0.07140    0.76200    1.000
    H44      H        0.69200    0.11380    0.76570    1.000
    O62      O        0.18780    0.25650    0.65320    1.000
    C118     C        0.02030    0.14870    0.76220    1.000
    C119     C        0.85130    0.95980    0.73600    1.000
    H45      H        0.81390    0.91750    0.72940    1.000
    C120     C        0.49290    0.88080    0.74670    1.000
    C121     C        0.55090    0.94830    0.75120    1.000
    O63      O        0.09270    0.29320    0.69830    1.000
    C122     C        0.66840    0.24060    0.58180    1.000
    H46      H        0.74240    0.23930    0.62310    1.000
    C123     C        0.50660    0.00680    0.76240    1.000
    H47      H        0.44200    0.00420    0.76630    1.000
    O64      O        0.41280    0.13180    0.76870    1.000
    C124     C        0.50990    0.13440    0.77820    1.000
    C125     C        0.77250    0.24530    0.52150    1.000
    C126     C        0.86970    0.22560    0.39980    1.000
    C127     C        0.66290    0.24270    0.52180    1.000
    C128     C        0.55010    0.24390    0.46080    1.000
    H48      H        0.54270    0.24610    0.41860    1.000
    Na10     Na       0.87190    0.28619    0.78198    1.000
    Na11     Na       0.35350    0.24400    0.76014    1.000
    Na12     Na       0.84870    0.84001    0.55722    1.000
