# CIF file generated by openbabel 3.1.0, see https://openbabel.org
data_I
_chemical_name_common 'image0'
_cell_length_a 13.014
_cell_length_b 23.695
_cell_length_c 16.214
_cell_angle_alpha 90
_cell_angle_beta 107.04
_cell_angle_gamma 90
_space_group_name_H-M_alt 'P 1'
_space_group_name_Hall 'P 1'
loop_
    _symmetry_equiv_pos_as_xyz
    x,y,z
loop_
    _atom_site_label
    _atom_site_type_symbol
    _atom_site_fract_x
    _atom_site_fract_y
    _atom_site_fract_z
    _atom_site_occupancy
    Sm1      Sm       0.75230    0.32792    0.67742    1.000
    Sm2      Sm       0.31176    0.32612    0.82740    1.000
    Sm3      Sm       0.52649    0.57874    0.75290    1.000
    N1       N        0.64370    0.31670    0.78030    1.000
    N2       N        0.50250    0.31130    0.83240    1.000
    N3       N        0.83490    0.29030    0.56690    1.000
    N4       N        0.84930    0.24270    0.44960    1.000
    N5       N        0.94230    0.34930    0.76020    1.000
    N6       N        0.12140    0.34140    0.81760    1.000
    N7       N        0.74170    0.42440    0.73660    1.000
    N8       N        0.66450    0.50550    0.75850    1.000
    N9       N        0.67310    0.39060    0.54860    1.000
    N10      N        0.59810    0.41720    0.41120    1.000
    N11      N        0.59200    0.26900    0.58630    1.000
    N12      N        0.48470    0.19620    0.53800    1.000
    H1       H        0.45500    0.16250    0.53360    1.000
    N13      N        0.31750    0.42590    0.78290    1.000
    N14      N        0.39210    0.50840    0.76260    1.000
    N15      N        0.24420    0.23390    0.75520    1.000
    N16      N        0.14260    0.15500    0.73110    1.000
    N17      N        0.28780    0.33670    0.66090    1.000
    N18      N        0.20420    0.34930    0.52360    1.000
    H2       H        0.15490    0.34540    0.47350    1.000
    N19      N        0.40020    0.65100    0.76930    1.000
    N20      N        0.30820    0.73250    0.74400    1.000
    N21      N        0.44440    0.58050    0.59790    1.000
    N22      N        0.36190    0.61380    0.46300    1.000
    C1       C        0.53860    0.30540    0.76540    1.000
    H3       H        0.49380    0.29400    0.71050    1.000
    C2       C        0.67720    0.32870    0.86580    1.000
    H4       H        0.74880    0.33770    0.89790    1.000
    C3       C        0.59230    0.32580    0.89840    1.000
    H5       H        0.59460    0.33260    0.95660    1.000
    C4       C        0.80220    0.24700    0.51340    1.000
    H6       H        0.74950    0.22090    0.51960    1.000
    C5       C        0.90950    0.31730    0.53370    1.000
    H7       H        0.94820    0.35060    0.55620    1.000
    C6       C        0.91740    0.28810    0.46390    1.000
    H8       H        0.96320    0.29770    0.43000    1.000
    C7       C        0.03480    0.32800    0.75220    1.000
    H9       H        0.03830    0.30550    0.70450    1.000
    C8       C        0.97250    0.37710    0.83880    1.000
    H10      H        0.92620    0.39670    0.86460    1.000
    C9       C        0.07980    0.37120    0.87200    1.000
    H11      H        0.12080    0.38590    0.92610    1.000
    C10      C        0.65990    0.44860    0.75750    1.000
    H12      H        0.60410    0.42780    0.77040    1.000
    C11      C        0.80240    0.46950    0.72260    1.000
    H13      H        0.86640    0.46690    0.70600    1.000
    C12      C        0.75500    0.51800    0.73650    1.000
    H14      H        0.78090    0.55500    0.73160    1.000
    C13      C        0.66960    0.38480    0.46530    1.000
    H15      H        0.71490    0.35950    0.44680    1.000
    C14      C        0.59480    0.43070    0.54590    1.000
    H16      H        0.57540    0.44500    0.59400    1.000
    C15      C        0.55050    0.44610    0.46220    1.000
    H17      H        0.49470    0.47300    0.44250    1.000
    C16      C        0.57110    0.21500    0.59980    1.000
    H18      H        0.61210    0.19290    0.64690    1.000
    C17      C        0.51530    0.28420    0.51350    1.000
    H19      H        0.50850    0.32080    0.48850    1.000
    C18      C        0.45260    0.24230    0.48240    1.000
    H20      H        0.39460    0.24260    0.43060    1.000
    C19      C        0.40430    0.45740    0.79790    1.000
    H21      H        0.47240    0.44430    0.83230    1.000
    C20      C        0.23800    0.45990    0.73180    1.000
    H22      H        0.16440    0.44990    0.70870    1.000
    C21      C        0.28250    0.50990    0.72010    1.000
    H23      H        0.24480    0.54090    0.68800    1.000
    C22      C        0.17370    0.20110    0.77920    1.000
    H24      H        0.14810    0.21000    0.82680    1.000
    C23      C        0.25860    0.20640    0.68500    1.000
    H25      H        0.30380    0.21870    0.65200    1.000
    C24      C        0.19840    0.15890    0.67020    1.000
    H26      H        0.19470    0.13250    0.62530    1.000
    C25      C        0.20220    0.32620    0.59850    1.000
    H27      H        0.14390    0.30440    0.60510    1.000
    C26      C        0.34800    0.37220    0.62370    1.000
    H28      H        0.41530    0.38850    0.65360    1.000
    C27      C        0.29690    0.37990    0.53950    1.000
    H29      H        0.32020    0.40200    0.49940    1.000
    C28      C        0.38490    0.70120    0.72950    1.000
    H30      H        0.42640    0.71340    0.69350    1.000
    C29      C        0.32410    0.65040    0.81300    1.000
    H31      H        0.31240    0.62030    0.84790    1.000
    C30      C        0.26910    0.69930    0.79850    1.000
    H32      H        0.21260    0.70950    0.82190    1.000
    C31      C        0.42960    0.62420    0.54020    1.000
    H33      H        0.46530    0.65950    0.55450    1.000
    C32      C        0.38120    0.53910    0.55160    1.000
    H34      H        0.38200    0.49800    0.57600    1.000
    C33      C        0.33030    0.55860    0.47170    1.000
    H35      H        0.28040    0.53760    0.42790    1.000
    Sm4      Sm       0.25230    0.82792    0.67742    1.000
    Sm5      Sm       0.81176    0.82612    0.82740    1.000
    Sm6      Sm       0.02649    0.07874    0.75290    1.000
    N23      N        0.14370    0.81670    0.78030    1.000
    N24      N        0.00250    0.81130    0.83240    1.000
    N25      N        0.33490    0.79030    0.56690    1.000
    N26      N        0.34930    0.74270    0.44960    1.000
    N27      N        0.44230    0.84930    0.76020    1.000
    N28      N        0.62140    0.84140    0.81760    1.000
    N29      N        0.24170    0.92440    0.73660    1.000
    N30      N        0.16450    0.00550    0.75850    1.000
    N31      N        0.17310    0.89060    0.54860    1.000
    N32      N        0.09810    0.91720    0.41120    1.000
    N33      N        0.09200    0.76900    0.58630    1.000
    N34      N        0.98470    0.69620    0.53800    1.000
    H36      H        0.95500    0.66250    0.53360    1.000
    N35      N        0.81750    0.92590    0.78290    1.000
    N36      N        0.89210    0.00840    0.76260    1.000
    N37      N        0.74420    0.73390    0.75520    1.000
    N38      N        0.64260    0.65500    0.73110    1.000
    N39      N        0.78780    0.83670    0.66090    1.000
    N40      N        0.70420    0.84930    0.52360    1.000
    H37      H        0.65490    0.84540    0.47350    1.000
    N41      N        0.90020    0.15100    0.76930    1.000
    N42      N        0.80820    0.23250    0.74400    1.000
    N43      N        0.94440    0.08050    0.59790    1.000
    N44      N        0.86190    0.11380    0.46300    1.000
    C34      C        0.03860    0.80540    0.76540    1.000
    H38      H        0.99380    0.79400    0.71050    1.000
    C35      C        0.17720    0.82870    0.86580    1.000
    H39      H        0.24880    0.83770    0.89790    1.000
    C36      C        0.09230    0.82580    0.89840    1.000
    H40      H        0.09460    0.83260    0.95660    1.000
    C37      C        0.30220    0.74700    0.51340    1.000
    H41      H        0.24950    0.72090    0.51960    1.000
    C38      C        0.40950    0.81730    0.53370    1.000
    H42      H        0.44820    0.85060    0.55620    1.000
    C39      C        0.41740    0.78810    0.46390    1.000
    H43      H        0.46320    0.79770    0.43000    1.000
    C40      C        0.53480    0.82800    0.75220    1.000
    H44      H        0.53830    0.80550    0.70450    1.000
    C41      C        0.47250    0.87710    0.83880    1.000
    H45      H        0.42620    0.89670    0.86460    1.000
    C42      C        0.57980    0.87120    0.87200    1.000
    H46      H        0.62080    0.88590    0.92610    1.000
    C43      C        0.15990    0.94860    0.75750    1.000
    H47      H        0.10410    0.92780    0.77040    1.000
    C44      C        0.30240    0.96950    0.72260    1.000
    H48      H        0.36640    0.96690    0.70600    1.000
    C45      C        0.25500    0.01800    0.73650    1.000
    H49      H        0.28090    0.05500    0.73160    1.000
    C46      C        0.16960    0.88480    0.46530    1.000
    H50      H        0.21490    0.85950    0.44680    1.000
    C47      C        0.09480    0.93070    0.54590    1.000
    H51      H        0.07540    0.94500    0.59400    1.000
    C48      C        0.05050    0.94610    0.46220    1.000
    H52      H        0.99470    0.97300    0.44250    1.000
    C49      C        0.07110    0.71500    0.59980    1.000
    H53      H        0.11210    0.69290    0.64690    1.000
    C50      C        0.01530    0.78420    0.51350    1.000
    H54      H        0.00850    0.82080    0.48850    1.000
    C51      C        0.95260    0.74230    0.48240    1.000
    H55      H        0.89460    0.74260    0.43060    1.000
    C52      C        0.90430    0.95740    0.79790    1.000
    H56      H        0.97240    0.94430    0.83230    1.000
    C53      C        0.73800    0.95990    0.73180    1.000
    H57      H        0.66440    0.94990    0.70870    1.000
    C54      C        0.78250    0.00990    0.72010    1.000
    H58      H        0.74480    0.04090    0.68800    1.000
    C55      C        0.67370    0.70110    0.77920    1.000
    H59      H        0.64810    0.71000    0.82680    1.000
    C56      C        0.75860    0.70640    0.68500    1.000
    H60      H        0.80380    0.71870    0.65200    1.000
    C57      C        0.69840    0.65890    0.67020    1.000
    H61      H        0.69470    0.63250    0.62530    1.000
    C58      C        0.70220    0.82620    0.59850    1.000
    H62      H        0.64390    0.80440    0.60510    1.000
    C59      C        0.84800    0.87220    0.62370    1.000
    H63      H        0.91530    0.88850    0.65360    1.000
    C60      C        0.79690    0.87990    0.53950    1.000
    H64      H        0.82020    0.90200    0.49940    1.000
    C61      C        0.88490    0.20120    0.72950    1.000
    H65      H        0.92640    0.21340    0.69350    1.000
    C62      C        0.82410    0.15040    0.81300    1.000
    H66      H        0.81240    0.12030    0.84790    1.000
    C63      C        0.76910    0.19930    0.79850    1.000
    H67      H        0.71260    0.20950    0.82190    1.000
    C64      C        0.92960    0.12420    0.54020    1.000
    H68      H        0.96530    0.15950    0.55450    1.000
    C65      C        0.88120    0.03910    0.55160    1.000
    H69      H        0.88200    0.99800    0.57600    1.000
    C66      C        0.83030    0.05860    0.47170    1.000
    H70      H        0.78040    0.03760    0.42790    1.000
    Sm7      Sm       0.75230    0.67208    0.17742    1.000
    Sm8      Sm       0.31176    0.67388    0.32740    1.000
    Sm9      Sm       0.52649    0.42126    0.25290    1.000
    N45      N        0.64370    0.68330    0.28030    1.000
    N46      N        0.50250    0.68870    0.33240    1.000
    N47      N        0.83490    0.70970    0.06690    1.000
    N48      N        0.84930    0.75730    0.94960    1.000
    N49      N        0.94230    0.65070    0.26020    1.000
    N50      N        0.12140    0.65860    0.31760    1.000
    N51      N        0.74170    0.57560    0.23660    1.000
    N52      N        0.66450    0.49450    0.25850    1.000
    N53      N        0.67310    0.60940    0.04860    1.000
    N54      N        0.59810    0.58280    0.91120    1.000
    N55      N        0.59200    0.73100    0.08630    1.000
    N56      N        0.48470    0.80380    0.03800    1.000
    H71      H        0.45500    0.83750    0.03360    1.000
    N57      N        0.31750    0.57410    0.28290    1.000
    N58      N        0.39210    0.49160    0.26260    1.000
    N59      N        0.24420    0.76610    0.25520    1.000
    N60      N        0.14260    0.84500    0.23110    1.000
    N61      N        0.28780    0.66330    0.16090    1.000
    N62      N        0.20420    0.65070    0.02360    1.000
    H72      H        0.15490    0.65460    0.97350    1.000
    N63      N        0.40020    0.34900    0.26930    1.000
    N64      N        0.30820    0.26750    0.24400    1.000
    N65      N        0.44440    0.41950    0.09790    1.000
    N66      N        0.36190    0.38620    0.96300    1.000
    C67      C        0.53860    0.69460    0.26540    1.000
    H73      H        0.49380    0.70600    0.21050    1.000
    C68      C        0.67720    0.67130    0.36580    1.000
    H74      H        0.74880    0.66230    0.39790    1.000
    C69      C        0.59230    0.67420    0.39840    1.000
    H75      H        0.59460    0.66740    0.45660    1.000
    C70      C        0.80220    0.75300    0.01340    1.000
    H76      H        0.74950    0.77910    0.01960    1.000
    C71      C        0.90950    0.68270    0.03370    1.000
    H77      H        0.94820    0.64940    0.05620    1.000
    C72      C        0.91740    0.71190    0.96390    1.000
    H78      H        0.96320    0.70230    0.93000    1.000
    C73      C        0.03480    0.67200    0.25220    1.000
    H79      H        0.03830    0.69450    0.20450    1.000
    C74      C        0.97250    0.62290    0.33880    1.000
    H80      H        0.92620    0.60330    0.36460    1.000
    C75      C        0.07980    0.62880    0.37200    1.000
    H81      H        0.12080    0.61410    0.42610    1.000
    C76      C        0.65990    0.55140    0.25750    1.000
    H82      H        0.60410    0.57220    0.27040    1.000
    C77      C        0.80240    0.53050    0.22260    1.000
    H83      H        0.86640    0.53310    0.20600    1.000
    C78      C        0.75500    0.48200    0.23650    1.000
    H84      H        0.78090    0.44500    0.23160    1.000
    C79      C        0.66960    0.61520    0.96530    1.000
    H85      H        0.71490    0.64050    0.94680    1.000
    C80      C        0.59480    0.56930    0.04590    1.000
    H86      H        0.57540    0.55500    0.09400    1.000
    C81      C        0.55050    0.55390    0.96220    1.000
    H87      H        0.49470    0.52700    0.94250    1.000
    C82      C        0.57110    0.78500    0.09980    1.000
    H88      H        0.61210    0.80710    0.14690    1.000
    C83      C        0.51530    0.71580    0.01350    1.000
    H89      H        0.50850    0.67920    0.98850    1.000
    C84      C        0.45260    0.75770    0.98240    1.000
    H90      H        0.39460    0.75740    0.93060    1.000
    C85      C        0.40430    0.54260    0.29790    1.000
    H91      H        0.47240    0.55570    0.33230    1.000
    C86      C        0.23800    0.54010    0.23180    1.000
    H92      H        0.16440    0.55010    0.20870    1.000
    C87      C        0.28250    0.49010    0.22010    1.000
    H93      H        0.24480    0.45910    0.18800    1.000
    C88      C        0.17370    0.79890    0.27920    1.000
    H94      H        0.14810    0.79000    0.32680    1.000
    C89      C        0.25860    0.79360    0.18500    1.000
    H95      H        0.30380    0.78130    0.15200    1.000
    C90      C        0.19840    0.84110    0.17020    1.000
    H96      H        0.19470    0.86750    0.12530    1.000
    C91      C        0.20220    0.67380    0.09850    1.000
    H97      H        0.14390    0.69560    0.10510    1.000
    C92      C        0.34800    0.62780    0.12370    1.000
    H98      H        0.41530    0.61150    0.15360    1.000
    C93      C        0.29690    0.62010    0.03950    1.000
    H99      H        0.32020    0.59800    0.99940    1.000
    C94      C        0.38490    0.29880    0.22950    1.000
    H100     H        0.42640    0.28660    0.19350    1.000
    C95      C        0.32410    0.34960    0.31300    1.000
    H101     H        0.31240    0.37970    0.34790    1.000
    C96      C        0.26910    0.30070    0.29850    1.000
    H102     H        0.21260    0.29050    0.32190    1.000
    C97      C        0.42960    0.37580    0.04020    1.000
    H103     H        0.46530    0.34050    0.05450    1.000
    C98      C        0.38120    0.46090    0.05160    1.000
    H104     H        0.38200    0.50200    0.07600    1.000
    C99      C        0.33030    0.44140    0.97170    1.000
    H105     H        0.28040    0.46240    0.92790    1.000
    Sm10     Sm       0.25230    0.17208    0.17742    1.000
    Sm11     Sm       0.81176    0.17388    0.32740    1.000
    Sm12     Sm       0.02649    0.92126    0.25290    1.000
    N67      N        0.14370    0.18330    0.28030    1.000
    N68      N        0.00250    0.18870    0.33240    1.000
    N69      N        0.33490    0.20970    0.06690    1.000
    N70      N        0.34930    0.25730    0.94960    1.000
    N71      N        0.44230    0.15070    0.26020    1.000
    N72      N        0.62140    0.15860    0.31760    1.000
    N73      N        0.24170    0.07560    0.23660    1.000
    N74      N        0.16450    0.99450    0.25850    1.000
    N75      N        0.17310    0.10940    0.04860    1.000
    N76      N        0.09810    0.08280    0.91120    1.000
    N77      N        0.09200    0.23100    0.08630    1.000
    N78      N        0.98470    0.30380    0.03800    1.000
    H106     H        0.95500    0.33750    0.03360    1.000
    N79      N        0.81750    0.07410    0.28290    1.000
    N80      N        0.89210    0.99160    0.26260    1.000
    N81      N        0.74420    0.26610    0.25520    1.000
    N82      N        0.64260    0.34500    0.23110    1.000
    N83      N        0.78780    0.16330    0.16090    1.000
    N84      N        0.70420    0.15070    0.02360    1.000
    H107     H        0.65490    0.15460    0.97350    1.000
    N85      N        0.90020    0.84900    0.26930    1.000
    N86      N        0.80820    0.76750    0.24400    1.000
    N87      N        0.94440    0.91950    0.09790    1.000
    N88      N        0.86190    0.88620    0.96300    1.000
    C100     C        0.03860    0.19460    0.26540    1.000
    H108     H        0.99380    0.20600    0.21050    1.000
    C101     C        0.17720    0.17130    0.36580    1.000
    H109     H        0.24880    0.16230    0.39790    1.000
    C102     C        0.09230    0.17420    0.39840    1.000
    H110     H        0.09460    0.16740    0.45660    1.000
    C103     C        0.30220    0.25300    0.01340    1.000
    H111     H        0.24950    0.27910    0.01960    1.000
    C104     C        0.40950    0.18270    0.03370    1.000
    H112     H        0.44820    0.14940    0.05620    1.000
    C105     C        0.41740    0.21190    0.96390    1.000
    H113     H        0.46320    0.20230    0.93000    1.000
    C106     C        0.53480    0.17200    0.25220    1.000
    H114     H        0.53830    0.19450    0.20450    1.000
    C107     C        0.47250    0.12290    0.33880    1.000
    H115     H        0.42620    0.10330    0.36460    1.000
    C108     C        0.57980    0.12880    0.37200    1.000
    H116     H        0.62080    0.11410    0.42610    1.000
    C109     C        0.15990    0.05140    0.25750    1.000
    H117     H        0.10410    0.07220    0.27040    1.000
    C110     C        0.30240    0.03050    0.22260    1.000
    H118     H        0.36640    0.03310    0.20600    1.000
    C111     C        0.25500    0.98200    0.23650    1.000
    H119     H        0.28090    0.94500    0.23160    1.000
    C112     C        0.16960    0.11520    0.96530    1.000
    H120     H        0.21490    0.14050    0.94680    1.000
    C113     C        0.09480    0.06930    0.04590    1.000
    H121     H        0.07540    0.05500    0.09400    1.000
    C114     C        0.05050    0.05390    0.96220    1.000
    H122     H        0.99470    0.02700    0.94250    1.000
    C115     C        0.07110    0.28500    0.09980    1.000
    H123     H        0.11210    0.30710    0.14690    1.000
    C116     C        0.01530    0.21580    0.01350    1.000
    H124     H        0.00850    0.17920    0.98850    1.000
    C117     C        0.95260    0.25770    0.98240    1.000
    H125     H        0.89460    0.25740    0.93060    1.000
    C118     C        0.90430    0.04260    0.29790    1.000
    H126     H        0.97240    0.05570    0.33230    1.000
    C119     C        0.73800    0.04010    0.23180    1.000
    H127     H        0.66440    0.05010    0.20870    1.000
    C120     C        0.78250    0.99010    0.22010    1.000
    H128     H        0.74480    0.95910    0.18800    1.000
    C121     C        0.67370    0.29890    0.27920    1.000
    H129     H        0.64810    0.29000    0.32680    1.000
    C122     C        0.75860    0.29360    0.18500    1.000
    H130     H        0.80380    0.28130    0.15200    1.000
    C123     C        0.69840    0.34110    0.17020    1.000
    H131     H        0.69470    0.36750    0.12530    1.000
    C124     C        0.70220    0.17380    0.09850    1.000
    H132     H        0.64390    0.19560    0.10510    1.000
    C125     C        0.84800    0.12780    0.12370    1.000
    H133     H        0.91530    0.11150    0.15360    1.000
    C126     C        0.79690    0.12010    0.03950    1.000
    H134     H        0.82020    0.09800    0.99940    1.000
    C127     C        0.88490    0.79880    0.22950    1.000
    H135     H        0.92640    0.78660    0.19350    1.000
    C128     C        0.82410    0.84960    0.31300    1.000
    H136     H        0.81240    0.87970    0.34790    1.000
    C129     C        0.76910    0.80070    0.29850    1.000
    H137     H        0.71260    0.79050    0.32190    1.000
    C130     C        0.92960    0.87580    0.04020    1.000
    H138     H        0.96530    0.84050    0.05450    1.000
    C131     C        0.88120    0.96090    0.05160    1.000
    H139     H        0.88200    0.00200    0.07600    1.000
    C132     C        0.83030    0.94140    0.97170    1.000
    H140     H        0.78040    0.96240    0.92790    1.000
