# CIF file generated by openbabel 3.1.0, see https://openbabel.org
data_I
_chemical_name_common 'image0'
_cell_length_a 34.346
_cell_length_b 15.114
_cell_length_c 32.5502
_cell_angle_alpha 90
_cell_angle_beta 103.415
_cell_angle_gamma 90
_space_group_name_H-M_alt 'P 1'
_space_group_name_Hall 'P 1'
loop_
    _symmetry_equiv_pos_as_xyz
    x,y,z
loop_
    _atom_site_label
    _atom_site_type_symbol
    _atom_site_fract_x
    _atom_site_fract_y
    _atom_site_fract_z
    _atom_site_occupancy
    C1       C        0.53120    0.54680    0.54700    1.000
    H1       H        0.51070    0.53840    0.56190    1.000
    C2       C        0.52780    0.61620    0.51910    1.000
    H2       H        0.50520    0.65410    0.51430    1.000
    C3       C        0.55790    0.63020    0.49800    1.000
    C4       C        0.58940    0.57040    0.50390    1.000
    H3       H        0.60990    0.57690    0.48890    1.000
    C5       C        0.59040    0.50140    0.53190    1.000
    H4       H        0.61180    0.46020    0.53570    1.000
    C6       C        0.55590    0.70810    0.46940    1.000
    C7       C        0.52350    0.83230    0.44270    1.000
    C8       C        0.57540    0.78110    0.41800    1.000
    C9       C        0.66730    0.79560    0.37440    1.000
    H5       H        0.69510    0.78290    0.38320    1.000
    C10      C        0.64290    0.77700    0.40130    1.000
    H6       H        0.65390    0.75200    0.42820    1.000
    C11      C        0.60240    0.79450    0.38930    1.000
    C12      C        0.58700    0.83080    0.34900    1.000
    H7       H        0.55940    0.84500    0.33960    1.000
    C13      C        0.61380    0.84500    0.32360    1.000
    H8       H        0.60340    0.86580    0.29570    1.000
    C14      C        0.45070    0.01760    0.41190    1.000
    H9       H        0.44370    0.05900    0.38950    1.000
    C15      C        0.48230    0.96210    0.41240    1.000
    H10      H        0.49760    0.96800    0.39180    1.000
    C16      C        0.49160    0.89820    0.44270    1.000
    C17      C        0.47110    0.89940    0.47430    1.000
    H11      H        0.47800    0.85910    0.49730    1.000
    C18      C        0.44040    0.95900    0.47270    1.000
    H12      H        0.42650    0.95920    0.49480    1.000
    C19      C        0.33560    0.94410    0.38940    1.000
    H13      H        0.35450    0.91200    0.41000    1.000
    C20      C        0.30640    0.89750    0.36220    1.000
    H14      H        0.30540    0.83480    0.36400    1.000
    C21      C        0.27830    0.94270    0.33230    1.000
    C22      C        0.28180    0.03410    0.33050    1.000
    H15      H        0.26360    0.06750    0.30990    1.000
    C23      C        0.31220    0.07540    0.35930    1.000
    H16      H        0.31410    0.13800    0.35820    1.000
    C24      C        0.24540    0.89470    0.30310    1.000
    C25      C        0.21000    0.77120    0.28280    1.000
    C26      C        0.19210    0.89830    0.24710    1.000
    C27      C        0.14530    0.07700    0.17120    1.000
    H17      H        0.15030    0.13710    0.16560    1.000
    C28      C        0.17150    0.03410    0.20370    1.000
    H18      H        0.19390    0.06470    0.22010    1.000
    C29      C        0.16500    0.94810    0.21220    1.000
    C30      C        0.13300    0.90610    0.18710    1.000
    H19      H        0.12830    0.84530    0.19140    1.000
    C31      C        0.10770    0.95260    0.15530    1.000
    H20      H        0.08530    0.92270    0.13840    1.000
    C32      C        0.17420    0.53860    0.26070    1.000
    H21      H        0.15640    0.50730    0.23880    1.000
    C33      C        0.17750    0.62860    0.25620    1.000
    H22      H        0.16170    0.65860    0.23240    1.000
    C34      C        0.20420    0.67370    0.28700    1.000
    C35      C        0.22550    0.62580    0.32050    1.000
    H23      H        0.24430    0.65440    0.34250    1.000
    C36      C        0.21960    0.53670    0.32220    1.000
    H24      H        0.23470    0.50460    0.34560    1.000
    N1       N        0.65300    0.83140    0.33580    1.000
    N2       N        0.56229    0.49040    0.55409    1.000
    N3       N        0.42972    0.01660    0.44090    1.000
    N4       N        0.58204    0.71400    0.44474    1.000
    N5       N        0.52723    0.76660    0.47120    1.000
    N6       N        0.54561    0.84100    0.41410    1.000
    N7       N        0.33910    0.03210    0.38860    1.000
    N8       N        0.22245    0.94320    0.27151    1.000
    N9       N        0.24058    0.80920    0.30995    1.000
    N10      N        0.18432    0.81250    0.25132    1.000
    N11      N        0.19400    0.49350    0.29300    1.000
    N12      N        0.11310    0.03690    0.14740    1.000
    Zn1      Zn       0.69042    0.85601    0.29590    1.000
    I1       I        0.65240    0.80487    0.22347    1.000
    I2       I        0.75902    0.79230    0.32775    1.000
    Zn2      Zn       0.56820    0.40030    0.60180    1.000
    I3       I        0.60473    0.26460    0.58410    1.000
    I4       I        0.50434    0.39430    0.62818    1.000
    Zn3      Zn       0.38031    0.09641    0.43487    1.000
    I5       I        0.39277    0.24610    0.40590    1.000
    I6       I        0.35830    0.08260    0.50380    1.000
    Zn4      Zn       0.67300    0.85600    0.28040    1.000
    I7       I        0.62600    0.82940    0.20838    1.000
    I8       I        0.73899    0.77240    0.30250    1.000
    Zn5      Zn       0.57510    0.39190    0.60220    1.000
    I9       I        0.60450    0.26140    0.57142    1.000
    I10      I        0.51204    0.37530    0.62980    1.000
    I11      I        0.39740    0.23530    0.39870    1.000
    I12      I        0.35510    0.06830    0.50150    1.000
    C37      C        0.03120    0.04680    0.54700    1.000
    H25      H        0.01070    0.03840    0.56190    1.000
    C38      C        0.02780    0.11620    0.51910    1.000
    H26      H        0.00520    0.15410    0.51430    1.000
    C39      C        0.05790    0.13020    0.49800    1.000
    C40      C        0.08940    0.07040    0.50390    1.000
    H27      H        0.10990    0.07690    0.48890    1.000
    C41      C        0.09040    0.00140    0.53190    1.000
    H28      H        0.11180    0.96020    0.53570    1.000
    C42      C        0.05590    0.20810    0.46940    1.000
    C43      C        0.02350    0.33230    0.44270    1.000
    C44      C        0.07540    0.28110    0.41800    1.000
    C45      C        0.16730    0.29560    0.37440    1.000
    H29      H        0.19510    0.28290    0.38320    1.000
    C46      C        0.14290    0.27700    0.40130    1.000
    H30      H        0.15390    0.25200    0.42820    1.000
    C47      C        0.10240    0.29450    0.38930    1.000
    C48      C        0.08700    0.33080    0.34900    1.000
    H31      H        0.05940    0.34500    0.33960    1.000
    C49      C        0.11380    0.34500    0.32360    1.000
    H32      H        0.10340    0.36580    0.29570    1.000
    C50      C        0.95070    0.51760    0.41190    1.000
    H33      H        0.94370    0.55900    0.38950    1.000
    C51      C        0.98230    0.46210    0.41240    1.000
    H34      H        0.99760    0.46800    0.39180    1.000
    C52      C        0.99160    0.39820    0.44270    1.000
    C53      C        0.97110    0.39940    0.47430    1.000
    H35      H        0.97800    0.35910    0.49730    1.000
    C54      C        0.94040    0.45900    0.47270    1.000
    H36      H        0.92650    0.45920    0.49480    1.000
    C55      C        0.83560    0.44410    0.38940    1.000
    H37      H        0.85450    0.41200    0.41000    1.000
    C56      C        0.80640    0.39750    0.36220    1.000
    H38      H        0.80540    0.33480    0.36400    1.000
    C57      C        0.77830    0.44270    0.33230    1.000
    C58      C        0.78180    0.53410    0.33050    1.000
    H39      H        0.76360    0.56750    0.30990    1.000
    C59      C        0.81220    0.57540    0.35930    1.000
    H40      H        0.81410    0.63800    0.35820    1.000
    C60      C        0.74540    0.39470    0.30310    1.000
    C61      C        0.71000    0.27120    0.28280    1.000
    C62      C        0.69210    0.39830    0.24710    1.000
    C63      C        0.64530    0.57700    0.17120    1.000
    H41      H        0.65030    0.63710    0.16560    1.000
    C64      C        0.67150    0.53410    0.20370    1.000
    H42      H        0.69390    0.56470    0.22010    1.000
    C65      C        0.66500    0.44810    0.21220    1.000
    C66      C        0.63300    0.40610    0.18710    1.000
    H43      H        0.62830    0.34530    0.19140    1.000
    C67      C        0.60770    0.45260    0.15530    1.000
    H44      H        0.58530    0.42270    0.13840    1.000
    C68      C        0.67420    0.03860    0.26070    1.000
    H45      H        0.65640    0.00730    0.23880    1.000
    C69      C        0.67750    0.12860    0.25620    1.000
    H46      H        0.66170    0.15860    0.23240    1.000
    C70      C        0.70420    0.17370    0.28700    1.000
    C71      C        0.72550    0.12580    0.32050    1.000
    H47      H        0.74430    0.15440    0.34250    1.000
    C72      C        0.71960    0.03670    0.32220    1.000
    H48      H        0.73470    0.00460    0.34560    1.000
    N13      N        0.15300    0.33140    0.33580    1.000
    N14      N        0.06229    0.99040    0.55409    1.000
    N15      N        0.92972    0.51660    0.44090    1.000
    N16      N        0.08204    0.21400    0.44474    1.000
    N17      N        0.02723    0.26660    0.47120    1.000
    N18      N        0.04561    0.34100    0.41410    1.000
    N19      N        0.83910    0.53210    0.38860    1.000
    N20      N        0.72245    0.44320    0.27151    1.000
    N21      N        0.74058    0.30920    0.30995    1.000
    N22      N        0.68432    0.31250    0.25132    1.000
    N23      N        0.69400    0.99350    0.29300    1.000
    N24      N        0.61310    0.53690    0.14740    1.000
    Zn6      Zn       0.19042    0.35601    0.29590    1.000
    I13      I        0.15240    0.30487    0.22347    1.000
    I14      I        0.25902    0.29230    0.32775    1.000
    Zn7      Zn       0.06820    0.90030    0.60180    1.000
    I15      I        0.10473    0.76460    0.58410    1.000
    I16      I        0.00434    0.89430    0.62818    1.000
    Zn8      Zn       0.88031    0.59641    0.43487    1.000
    I17      I        0.89277    0.74610    0.40590    1.000
    I18      I        0.85830    0.58260    0.50380    1.000
    Zn9      Zn       0.17300    0.35600    0.28040    1.000
    I19      I        0.12600    0.32940    0.20838    1.000
    I20      I        0.23899    0.27240    0.30250    1.000
    Zn10     Zn       0.07510    0.89190    0.60220    1.000
    I21      I        0.10450    0.76140    0.57142    1.000
    I22      I        0.01204    0.87530    0.62980    1.000
    I23      I        0.89740    0.73530    0.39870    1.000
    I24      I        0.85510    0.56830    0.50150    1.000
    C73      C        0.53120    0.45320    0.04700    1.000
    H49      H        0.51070    0.46160    0.06190    1.000
    C74      C        0.52780    0.38380    0.01910    1.000
    H50      H        0.50520    0.34590    0.01430    1.000
    C75      C        0.55790    0.36980    0.99800    1.000
    C76      C        0.58940    0.42960    0.00390    1.000
    H51      H        0.60990    0.42310    0.98890    1.000
    C77      C        0.59040    0.49860    0.03190    1.000
    H52      H        0.61180    0.53980    0.03570    1.000
    C78      C        0.55590    0.29190    0.96940    1.000
    C79      C        0.52350    0.16770    0.94270    1.000
    C80      C        0.57540    0.21890    0.91800    1.000
    C81      C        0.66730    0.20440    0.87440    1.000
    H53      H        0.69510    0.21710    0.88320    1.000
    C82      C        0.64290    0.22300    0.90130    1.000
    H54      H        0.65390    0.24800    0.92820    1.000
    C83      C        0.60240    0.20550    0.88930    1.000
    C84      C        0.58700    0.16920    0.84900    1.000
    H55      H        0.55940    0.15500    0.83960    1.000
    C85      C        0.61380    0.15500    0.82360    1.000
    H56      H        0.60340    0.13420    0.79570    1.000
    C86      C        0.45070    0.98240    0.91190    1.000
    H57      H        0.44370    0.94100    0.88950    1.000
    C87      C        0.48230    0.03790    0.91240    1.000
    H58      H        0.49760    0.03200    0.89180    1.000
    C88      C        0.49160    0.10180    0.94270    1.000
    C89      C        0.47110    0.10060    0.97430    1.000
    H59      H        0.47800    0.14090    0.99730    1.000
    C90      C        0.44040    0.04100    0.97270    1.000
    H60      H        0.42650    0.04080    0.99480    1.000
    C91      C        0.33560    0.05590    0.88940    1.000
    H61      H        0.35450    0.08800    0.91000    1.000
    C92      C        0.30640    0.10250    0.86220    1.000
    H62      H        0.30540    0.16520    0.86400    1.000
    C93      C        0.27830    0.05730    0.83230    1.000
    C94      C        0.28180    0.96590    0.83050    1.000
    H63      H        0.26360    0.93250    0.80990    1.000
    C95      C        0.31220    0.92460    0.85930    1.000
    H64      H        0.31410    0.86200    0.85820    1.000
    C96      C        0.24540    0.10530    0.80310    1.000
    C97      C        0.21000    0.22880    0.78280    1.000
    C98      C        0.19210    0.10170    0.74710    1.000
    C99      C        0.14530    0.92300    0.67120    1.000
    H65      H        0.15030    0.86290    0.66560    1.000
    C100     C        0.17150    0.96590    0.70370    1.000
    H66      H        0.19390    0.93530    0.72010    1.000
    C101     C        0.16500    0.05190    0.71220    1.000
    C102     C        0.13300    0.09390    0.68710    1.000
    H67      H        0.12830    0.15470    0.69140    1.000
    C103     C        0.10770    0.04740    0.65530    1.000
    H68      H        0.08530    0.07730    0.63840    1.000
    C104     C        0.17420    0.46140    0.76070    1.000
    H69      H        0.15640    0.49270    0.73880    1.000
    C105     C        0.17750    0.37140    0.75620    1.000
    H70      H        0.16170    0.34140    0.73240    1.000
    C106     C        0.20420    0.32630    0.78700    1.000
    C107     C        0.22550    0.37420    0.82050    1.000
    H71      H        0.24430    0.34560    0.84250    1.000
    C108     C        0.21960    0.46330    0.82220    1.000
    H72      H        0.23470    0.49540    0.84560    1.000
    N25      N        0.65300    0.16860    0.83580    1.000
    N26      N        0.56229    0.50960    0.05409    1.000
    N27      N        0.42972    0.98340    0.94090    1.000
    N28      N        0.58204    0.28600    0.94474    1.000
    N29      N        0.52723    0.23340    0.97120    1.000
    N30      N        0.54561    0.15900    0.91410    1.000
    N31      N        0.33910    0.96790    0.88860    1.000
    N32      N        0.22245    0.05680    0.77151    1.000
    N33      N        0.24058    0.19080    0.80995    1.000
    N34      N        0.18432    0.18750    0.75132    1.000
    N35      N        0.19400    0.50650    0.79300    1.000
    N36      N        0.11310    0.96310    0.64740    1.000
    Zn11     Zn       0.69042    0.14399    0.79590    1.000
    I25      I        0.65240    0.19513    0.72347    1.000
    I26      I        0.75902    0.20770    0.82775    1.000
    Zn12     Zn       0.56820    0.59970    0.10180    1.000
    I27      I        0.60473    0.73540    0.08410    1.000
    I28      I        0.50434    0.60570    0.12818    1.000
    Zn13     Zn       0.38031    0.90359    0.93487    1.000
    I29      I        0.39277    0.75390    0.90590    1.000
    I30      I        0.35830    0.91740    0.00380    1.000
    Zn14     Zn       0.67300    0.14400    0.78040    1.000
    I31      I        0.62600    0.17060    0.70838    1.000
    I32      I        0.73899    0.22760    0.80250    1.000
    Zn15     Zn       0.57510    0.60810    0.10220    1.000
    I33      I        0.60450    0.73860    0.07142    1.000
    I34      I        0.51204    0.62470    0.12980    1.000
    I35      I        0.39740    0.76470    0.89870    1.000
    I36      I        0.35510    0.93170    0.00150    1.000
    C109     C        0.03120    0.95320    0.04700    1.000
    H73      H        0.01070    0.96160    0.06190    1.000
    C110     C        0.02780    0.88380    0.01910    1.000
    H74      H        0.00520    0.84590    0.01430    1.000
    C111     C        0.05790    0.86980    0.99800    1.000
    C112     C        0.08940    0.92960    0.00390    1.000
    H75      H        0.10990    0.92310    0.98890    1.000
    C113     C        0.09040    0.99860    0.03190    1.000
    H76      H        0.11180    0.03980    0.03570    1.000
    C114     C        0.05590    0.79190    0.96940    1.000
    C115     C        0.02350    0.66770    0.94270    1.000
    C116     C        0.07540    0.71890    0.91800    1.000
    C117     C        0.16730    0.70440    0.87440    1.000
    H77      H        0.19510    0.71710    0.88320    1.000
    C118     C        0.14290    0.72300    0.90130    1.000
    H78      H        0.15390    0.74800    0.92820    1.000
    C119     C        0.10240    0.70550    0.88930    1.000
    C120     C        0.08700    0.66920    0.84900    1.000
    H79      H        0.05940    0.65500    0.83960    1.000
    C121     C        0.11380    0.65500    0.82360    1.000
    H80      H        0.10340    0.63420    0.79570    1.000
    C122     C        0.95070    0.48240    0.91190    1.000
    H81      H        0.94370    0.44100    0.88950    1.000
    C123     C        0.98230    0.53790    0.91240    1.000
    H82      H        0.99760    0.53200    0.89180    1.000
    C124     C        0.99160    0.60180    0.94270    1.000
    C125     C        0.97110    0.60060    0.97430    1.000
    H83      H        0.97800    0.64090    0.99730    1.000
    C126     C        0.94040    0.54100    0.97270    1.000
    H84      H        0.92650    0.54080    0.99480    1.000
    C127     C        0.83560    0.55590    0.88940    1.000
    H85      H        0.85450    0.58800    0.91000    1.000
    C128     C        0.80640    0.60250    0.86220    1.000
    H86      H        0.80540    0.66520    0.86400    1.000
    C129     C        0.77830    0.55730    0.83230    1.000
    C130     C        0.78180    0.46590    0.83050    1.000
    H87      H        0.76360    0.43250    0.80990    1.000
    C131     C        0.81220    0.42460    0.85930    1.000
    H88      H        0.81410    0.36200    0.85820    1.000
    C132     C        0.74540    0.60530    0.80310    1.000
    C133     C        0.71000    0.72880    0.78280    1.000
    C134     C        0.69210    0.60170    0.74710    1.000
    C135     C        0.64530    0.42300    0.67120    1.000
    H89      H        0.65030    0.36290    0.66560    1.000
    C136     C        0.67150    0.46590    0.70370    1.000
    H90      H        0.69390    0.43530    0.72010    1.000
    C137     C        0.66500    0.55190    0.71220    1.000
    C138     C        0.63300    0.59390    0.68710    1.000
    H91      H        0.62830    0.65470    0.69140    1.000
    C139     C        0.60770    0.54740    0.65530    1.000
    H92      H        0.58530    0.57730    0.63840    1.000
    C140     C        0.67420    0.96140    0.76070    1.000
    H93      H        0.65640    0.99270    0.73880    1.000
    C141     C        0.67750    0.87140    0.75620    1.000
    H94      H        0.66170    0.84140    0.73240    1.000
    C142     C        0.70420    0.82630    0.78700    1.000
    C143     C        0.72550    0.87420    0.82050    1.000
    H95      H        0.74430    0.84560    0.84250    1.000
    C144     C        0.71960    0.96330    0.82220    1.000
    H96      H        0.73470    0.99540    0.84560    1.000
    N37      N        0.15300    0.66860    0.83580    1.000
    N38      N        0.06229    0.00960    0.05409    1.000
    N39      N        0.92972    0.48340    0.94090    1.000
    N40      N        0.08204    0.78600    0.94474    1.000
    N41      N        0.02723    0.73340    0.97120    1.000
    N42      N        0.04561    0.65900    0.91410    1.000
    N43      N        0.83910    0.46790    0.88860    1.000
    N44      N        0.72245    0.55680    0.77151    1.000
    N45      N        0.74058    0.69080    0.80995    1.000
    N46      N        0.68432    0.68750    0.75132    1.000
    N47      N        0.69400    0.00650    0.79300    1.000
    N48      N        0.61310    0.46310    0.64740    1.000
    Zn16     Zn       0.19042    0.64399    0.79590    1.000
    I37      I        0.15240    0.69513    0.72347    1.000
    I38      I        0.25902    0.70770    0.82775    1.000
    Zn17     Zn       0.06820    0.09970    0.10180    1.000
    I39      I        0.10473    0.23540    0.08410    1.000
    I40      I        0.00434    0.10570    0.12818    1.000
    Zn18     Zn       0.88031    0.40359    0.93487    1.000
    I41      I        0.89277    0.25390    0.90590    1.000
    I42      I        0.85830    0.41740    0.00380    1.000
    Zn19     Zn       0.17300    0.64400    0.78040    1.000
    I43      I        0.12600    0.67060    0.70838    1.000
    I44      I        0.23899    0.72760    0.80250    1.000
    Zn20     Zn       0.07510    0.10810    0.10220    1.000
    I45      I        0.10450    0.23860    0.07142    1.000
    I46      I        0.01204    0.12470    0.12980    1.000
    I47      I        0.89740    0.26470    0.89870    1.000
    I48      I        0.85510    0.43170    0.00150    1.000
    C145     C        0.46880    0.54680    0.95300    1.000
    H97      H        0.48930    0.53840    0.93810    1.000
    C146     C        0.47220    0.61620    0.98090    1.000
    H98      H        0.49480    0.65410    0.98570    1.000
    C147     C        0.44210    0.63020    0.00200    1.000
    C148     C        0.41060    0.57040    0.99610    1.000
    H99      H        0.39010    0.57690    0.01110    1.000
    C149     C        0.40960    0.50140    0.96810    1.000
    H100     H        0.38820    0.46020    0.96430    1.000
    C150     C        0.44410    0.70810    0.03060    1.000
    C151     C        0.47650    0.83230    0.05730    1.000
    C152     C        0.42460    0.78110    0.08200    1.000
    C153     C        0.33270    0.79560    0.12560    1.000
    H101     H        0.30490    0.78290    0.11680    1.000
    C154     C        0.35710    0.77700    0.09870    1.000
    H102     H        0.34610    0.75200    0.07180    1.000
    C155     C        0.39760    0.79450    0.11070    1.000
    C156     C        0.41300    0.83080    0.15100    1.000
    H103     H        0.44060    0.84500    0.16040    1.000
    C157     C        0.38620    0.84500    0.17640    1.000
    H104     H        0.39660    0.86580    0.20430    1.000
    C158     C        0.54930    0.01760    0.08810    1.000
    H105     H        0.55630    0.05900    0.11050    1.000
    C159     C        0.51770    0.96210    0.08760    1.000
    H106     H        0.50240    0.96800    0.10820    1.000
    C160     C        0.50840    0.89820    0.05730    1.000
    C161     C        0.52890    0.89940    0.02570    1.000
    H107     H        0.52200    0.85910    0.00270    1.000
    C162     C        0.55960    0.95900    0.02730    1.000
    H108     H        0.57350    0.95920    0.00520    1.000
    C163     C        0.66440    0.94410    0.11060    1.000
    H109     H        0.64550    0.91200    0.09000    1.000
    C164     C        0.69360    0.89750    0.13780    1.000
    H110     H        0.69460    0.83480    0.13600    1.000
    C165     C        0.72170    0.94270    0.16770    1.000
    C166     C        0.71820    0.03410    0.16950    1.000
    H111     H        0.73640    0.06750    0.19010    1.000
    C167     C        0.68780    0.07540    0.14070    1.000
    H112     H        0.68590    0.13800    0.14180    1.000
    C168     C        0.75460    0.89470    0.19690    1.000
    C169     C        0.79000    0.77120    0.21720    1.000
    C170     C        0.80790    0.89830    0.25290    1.000
    C171     C        0.85470    0.07700    0.32880    1.000
    H113     H        0.84970    0.13710    0.33440    1.000
    C172     C        0.82850    0.03410    0.29630    1.000
    H114     H        0.80610    0.06470    0.27990    1.000
    C173     C        0.83500    0.94810    0.28780    1.000
    C174     C        0.86700    0.90610    0.31290    1.000
    H115     H        0.87170    0.84530    0.30860    1.000
    C175     C        0.89230    0.95260    0.34470    1.000
    H116     H        0.91470    0.92270    0.36160    1.000
    C176     C        0.82580    0.53860    0.23930    1.000
    H117     H        0.84360    0.50730    0.26120    1.000
    C177     C        0.82250    0.62860    0.24380    1.000
    H118     H        0.83830    0.65860    0.26760    1.000
    C178     C        0.79580    0.67370    0.21300    1.000
    C179     C        0.77450    0.62580    0.17950    1.000
    H119     H        0.75570    0.65440    0.15750    1.000
    C180     C        0.78040    0.53670    0.17780    1.000
    H120     H        0.76530    0.50460    0.15440    1.000
    N49      N        0.34700    0.83140    0.16420    1.000
    N50      N        0.43771    0.49040    0.94591    1.000
    N51      N        0.57028    0.01660    0.05910    1.000
    N52      N        0.41796    0.71400    0.05526    1.000
    N53      N        0.47277    0.76660    0.02880    1.000
    N54      N        0.45439    0.84100    0.08590    1.000
    N55      N        0.66090    0.03210    0.11140    1.000
    N56      N        0.77755    0.94320    0.22849    1.000
    N57      N        0.75942    0.80920    0.19005    1.000
    N58      N        0.81568    0.81250    0.24868    1.000
    N59      N        0.80600    0.49350    0.20700    1.000
    N60      N        0.88690    0.03690    0.35260    1.000
    Zn21     Zn       0.30958    0.85601    0.20410    1.000
    I49      I        0.34760    0.80487    0.27653    1.000
    I50      I        0.24098    0.79230    0.17225    1.000
    Zn22     Zn       0.43180    0.40030    0.89820    1.000
    I51      I        0.39527    0.26460    0.91590    1.000
    I52      I        0.49566    0.39430    0.87182    1.000
    Zn23     Zn       0.61969    0.09641    0.06513    1.000
    I53      I        0.60723    0.24610    0.09410    1.000
    I54      I        0.64170    0.08260    0.99620    1.000
    Zn24     Zn       0.32700    0.85600    0.21960    1.000
    I55      I        0.37400    0.82940    0.29162    1.000
    I56      I        0.26101    0.77240    0.19750    1.000
    Zn25     Zn       0.42490    0.39190    0.89780    1.000
    I57      I        0.39550    0.26140    0.92858    1.000
    I58      I        0.48796    0.37530    0.87020    1.000
    I59      I        0.60260    0.23530    0.10130    1.000
    I60      I        0.64490    0.06830    0.99850    1.000
    C181     C        0.96880    0.04680    0.95300    1.000
    H121     H        0.98930    0.03840    0.93810    1.000
    C182     C        0.97220    0.11620    0.98090    1.000
    H122     H        0.99480    0.15410    0.98570    1.000
    C183     C        0.94210    0.13020    0.00200    1.000
    C184     C        0.91060    0.07040    0.99610    1.000
    H123     H        0.89010    0.07690    0.01110    1.000
    C185     C        0.90960    0.00140    0.96810    1.000
    H124     H        0.88820    0.96020    0.96430    1.000
    C186     C        0.94410    0.20810    0.03060    1.000
    C187     C        0.97650    0.33230    0.05730    1.000
    C188     C        0.92460    0.28110    0.08200    1.000
    C189     C        0.83270    0.29560    0.12560    1.000
    H125     H        0.80490    0.28290    0.11680    1.000
    C190     C        0.85710    0.27700    0.09870    1.000
    H126     H        0.84610    0.25200    0.07180    1.000
    C191     C        0.89760    0.29450    0.11070    1.000
    C192     C        0.91300    0.33080    0.15100    1.000
    H127     H        0.94060    0.34500    0.16040    1.000
    C193     C        0.88620    0.34500    0.17640    1.000
    H128     H        0.89660    0.36580    0.20430    1.000
    C194     C        0.04930    0.51760    0.08810    1.000
    H129     H        0.05630    0.55900    0.11050    1.000
    C195     C        0.01770    0.46210    0.08760    1.000
    H130     H        0.00240    0.46800    0.10820    1.000
    C196     C        0.00840    0.39820    0.05730    1.000
    C197     C        0.02890    0.39940    0.02570    1.000
    H131     H        0.02200    0.35910    0.00270    1.000
    C198     C        0.05960    0.45900    0.02730    1.000
    H132     H        0.07350    0.45920    0.00520    1.000
    C199     C        0.16440    0.44410    0.11060    1.000
    H133     H        0.14550    0.41200    0.09000    1.000
    C200     C        0.19360    0.39750    0.13780    1.000
    H134     H        0.19460    0.33480    0.13600    1.000
    C201     C        0.22170    0.44270    0.16770    1.000
    C202     C        0.21820    0.53410    0.16950    1.000
    H135     H        0.23640    0.56750    0.19010    1.000
    C203     C        0.18780    0.57540    0.14070    1.000
    H136     H        0.18590    0.63800    0.14180    1.000
    C204     C        0.25460    0.39470    0.19690    1.000
    C205     C        0.29000    0.27120    0.21720    1.000
    C206     C        0.30790    0.39830    0.25290    1.000
    C207     C        0.35470    0.57700    0.32880    1.000
    H137     H        0.34970    0.63710    0.33440    1.000
    C208     C        0.32850    0.53410    0.29630    1.000
    H138     H        0.30610    0.56470    0.27990    1.000
    C209     C        0.33500    0.44810    0.28780    1.000
    C210     C        0.36700    0.40610    0.31290    1.000
    H139     H        0.37170    0.34530    0.30860    1.000
    C211     C        0.39230    0.45260    0.34470    1.000
    H140     H        0.41470    0.42270    0.36160    1.000
    C212     C        0.32580    0.03860    0.23930    1.000
    H141     H        0.34360    0.00730    0.26120    1.000
    C213     C        0.32250    0.12860    0.24380    1.000
    H142     H        0.33830    0.15860    0.26760    1.000
    C214     C        0.29580    0.17370    0.21300    1.000
    C215     C        0.27450    0.12580    0.17950    1.000
    H143     H        0.25570    0.15440    0.15750    1.000
    C216     C        0.28040    0.03670    0.17780    1.000
    H144     H        0.26530    0.00460    0.15440    1.000
    N61      N        0.84700    0.33140    0.16420    1.000
    N62      N        0.93771    0.99040    0.94591    1.000
    N63      N        0.07028    0.51660    0.05910    1.000
    N64      N        0.91796    0.21400    0.05526    1.000
    N65      N        0.97277    0.26660    0.02880    1.000
    N66      N        0.95439    0.34100    0.08590    1.000
    N67      N        0.16090    0.53210    0.11140    1.000
    N68      N        0.27755    0.44320    0.22849    1.000
    N69      N        0.25942    0.30920    0.19005    1.000
    N70      N        0.31568    0.31250    0.24868    1.000
    N71      N        0.30600    0.99350    0.20700    1.000
    N72      N        0.38690    0.53690    0.35260    1.000
    Zn26     Zn       0.80958    0.35601    0.20410    1.000
    I61      I        0.84760    0.30487    0.27653    1.000
    I62      I        0.74098    0.29230    0.17225    1.000
    Zn27     Zn       0.93180    0.90030    0.89820    1.000
    I63      I        0.89527    0.76460    0.91590    1.000
    I64      I        0.99566    0.89430    0.87182    1.000
    Zn28     Zn       0.11969    0.59641    0.06513    1.000
    I65      I        0.10723    0.74610    0.09410    1.000
    I66      I        0.14170    0.58260    0.99620    1.000
    Zn29     Zn       0.82700    0.35600    0.21960    1.000
    I67      I        0.87400    0.32940    0.29162    1.000
    I68      I        0.76101    0.27240    0.19750    1.000
    Zn30     Zn       0.92490    0.89190    0.89780    1.000
    I69      I        0.89550    0.76140    0.92858    1.000
    I70      I        0.98796    0.87530    0.87020    1.000
    I71      I        0.10260    0.73530    0.10130    1.000
    I72      I        0.14490    0.56830    0.99850    1.000
    C217     C        0.46880    0.45320    0.45300    1.000
    H145     H        0.48930    0.46160    0.43810    1.000
    C218     C        0.47220    0.38380    0.48090    1.000
    H146     H        0.49480    0.34590    0.48570    1.000
    C219     C        0.44210    0.36980    0.50200    1.000
    C220     C        0.41060    0.42960    0.49610    1.000
    H147     H        0.39010    0.42310    0.51110    1.000
    C221     C        0.40960    0.49860    0.46810    1.000
    H148     H        0.38820    0.53980    0.46430    1.000
    C222     C        0.44410    0.29190    0.53060    1.000
    C223     C        0.47650    0.16770    0.55730    1.000
    C224     C        0.42460    0.21890    0.58200    1.000
    C225     C        0.33270    0.20440    0.62560    1.000
    H149     H        0.30490    0.21710    0.61680    1.000
    C226     C        0.35710    0.22300    0.59870    1.000
    H150     H        0.34610    0.24800    0.57180    1.000
    C227     C        0.39760    0.20550    0.61070    1.000
    C228     C        0.41300    0.16920    0.65100    1.000
    H151     H        0.44060    0.15500    0.66040    1.000
    C229     C        0.38620    0.15500    0.67640    1.000
    H152     H        0.39660    0.13420    0.70430    1.000
    C230     C        0.54930    0.98240    0.58810    1.000
    H153     H        0.55630    0.94100    0.61050    1.000
    C231     C        0.51770    0.03790    0.58760    1.000
    H154     H        0.50240    0.03200    0.60820    1.000
    C232     C        0.50840    0.10180    0.55730    1.000
    C233     C        0.52890    0.10060    0.52570    1.000
    H155     H        0.52200    0.14090    0.50270    1.000
    C234     C        0.55960    0.04100    0.52730    1.000
    H156     H        0.57350    0.04080    0.50520    1.000
    C235     C        0.66440    0.05590    0.61060    1.000
    H157     H        0.64550    0.08800    0.59000    1.000
    C236     C        0.69360    0.10250    0.63780    1.000
    H158     H        0.69460    0.16520    0.63600    1.000
    C237     C        0.72170    0.05730    0.66770    1.000
    C238     C        0.71820    0.96590    0.66950    1.000
    H159     H        0.73640    0.93250    0.69010    1.000
    C239     C        0.68780    0.92460    0.64070    1.000
    H160     H        0.68590    0.86200    0.64180    1.000
    C240     C        0.75460    0.10530    0.69690    1.000
    C241     C        0.79000    0.22880    0.71720    1.000
    C242     C        0.80790    0.10170    0.75290    1.000
    C243     C        0.85470    0.92300    0.82880    1.000
    H161     H        0.84970    0.86290    0.83440    1.000
    C244     C        0.82850    0.96590    0.79630    1.000
    H162     H        0.80610    0.93530    0.77990    1.000
    C245     C        0.83500    0.05190    0.78780    1.000
    C246     C        0.86700    0.09390    0.81290    1.000
    H163     H        0.87170    0.15470    0.80860    1.000
    C247     C        0.89230    0.04740    0.84470    1.000
    H164     H        0.91470    0.07730    0.86160    1.000
    C248     C        0.82580    0.46140    0.73930    1.000
    H165     H        0.84360    0.49270    0.76120    1.000
    C249     C        0.82250    0.37140    0.74380    1.000
    H166     H        0.83830    0.34140    0.76760    1.000
    C250     C        0.79580    0.32630    0.71300    1.000
    C251     C        0.77450    0.37420    0.67950    1.000
    H167     H        0.75570    0.34560    0.65750    1.000
    C252     C        0.78040    0.46330    0.67780    1.000
    H168     H        0.76530    0.49540    0.65440    1.000
    N73      N        0.34700    0.16860    0.66420    1.000
    N74      N        0.43771    0.50960    0.44591    1.000
    N75      N        0.57028    0.98340    0.55910    1.000
    N76      N        0.41796    0.28600    0.55526    1.000
    N77      N        0.47277    0.23340    0.52880    1.000
    N78      N        0.45439    0.15900    0.58590    1.000
    N79      N        0.66090    0.96790    0.61140    1.000
    N80      N        0.77755    0.05680    0.72849    1.000
    N81      N        0.75942    0.19080    0.69005    1.000
    N82      N        0.81568    0.18750    0.74868    1.000
    N83      N        0.80600    0.50650    0.70700    1.000
    N84      N        0.88690    0.96310    0.85260    1.000
    Zn31     Zn       0.30958    0.14399    0.70410    1.000
    I73      I        0.34760    0.19513    0.77653    1.000
    I74      I        0.24098    0.20770    0.67225    1.000
    Zn32     Zn       0.43180    0.59970    0.39820    1.000
    I75      I        0.39527    0.73540    0.41590    1.000
    I76      I        0.49566    0.60570    0.37182    1.000
    Zn33     Zn       0.61969    0.90359    0.56513    1.000
    I77      I        0.60723    0.75390    0.59410    1.000
    I78      I        0.64170    0.91740    0.49620    1.000
    Zn34     Zn       0.32700    0.14400    0.71960    1.000
    I79      I        0.37400    0.17060    0.79162    1.000
    I80      I        0.26101    0.22760    0.69750    1.000
    Zn35     Zn       0.42490    0.60810    0.39780    1.000
    I81      I        0.39550    0.73860    0.42858    1.000
    I82      I        0.48796    0.62470    0.37020    1.000
    I83      I        0.60260    0.76470    0.60130    1.000
    I84      I        0.64490    0.93170    0.49850    1.000
    C253     C        0.96880    0.95320    0.45300    1.000
    H169     H        0.98930    0.96160    0.43810    1.000
    C254     C        0.97220    0.88380    0.48090    1.000
    H170     H        0.99480    0.84590    0.48570    1.000
    C255     C        0.94210    0.86980    0.50200    1.000
    C256     C        0.91060    0.92960    0.49610    1.000
    H171     H        0.89010    0.92310    0.51110    1.000
    C257     C        0.90960    0.99860    0.46810    1.000
    H172     H        0.88820    0.03980    0.46430    1.000
    C258     C        0.94410    0.79190    0.53060    1.000
    C259     C        0.97650    0.66770    0.55730    1.000
    C260     C        0.92460    0.71890    0.58200    1.000
    C261     C        0.83270    0.70440    0.62560    1.000
    H173     H        0.80490    0.71710    0.61680    1.000
    C262     C        0.85710    0.72300    0.59870    1.000
    H174     H        0.84610    0.74800    0.57180    1.000
    C263     C        0.89760    0.70550    0.61070    1.000
    C264     C        0.91300    0.66920    0.65100    1.000
    H175     H        0.94060    0.65500    0.66040    1.000
    C265     C        0.88620    0.65500    0.67640    1.000
    H176     H        0.89660    0.63420    0.70430    1.000
    C266     C        0.04930    0.48240    0.58810    1.000
    H177     H        0.05630    0.44100    0.61050    1.000
    C267     C        0.01770    0.53790    0.58760    1.000
    H178     H        0.00240    0.53200    0.60820    1.000
    C268     C        0.00840    0.60180    0.55730    1.000
    C269     C        0.02890    0.60060    0.52570    1.000
    H179     H        0.02200    0.64090    0.50270    1.000
    C270     C        0.05960    0.54100    0.52730    1.000
    H180     H        0.07350    0.54080    0.50520    1.000
    C271     C        0.16440    0.55590    0.61060    1.000
    H181     H        0.14550    0.58800    0.59000    1.000
    C272     C        0.19360    0.60250    0.63780    1.000
    H182     H        0.19460    0.66520    0.63600    1.000
    C273     C        0.22170    0.55730    0.66770    1.000
    C274     C        0.21820    0.46590    0.66950    1.000
    H183     H        0.23640    0.43250    0.69010    1.000
    C275     C        0.18780    0.42460    0.64070    1.000
    H184     H        0.18590    0.36200    0.64180    1.000
    C276     C        0.25460    0.60530    0.69690    1.000
    C277     C        0.29000    0.72880    0.71720    1.000
    C278     C        0.30790    0.60170    0.75290    1.000
    C279     C        0.35470    0.42300    0.82880    1.000
    H185     H        0.34970    0.36290    0.83440    1.000
    C280     C        0.32850    0.46590    0.79630    1.000
    H186     H        0.30610    0.43530    0.77990    1.000
    C281     C        0.33500    0.55190    0.78780    1.000
    C282     C        0.36700    0.59390    0.81290    1.000
    H187     H        0.37170    0.65470    0.80860    1.000
    C283     C        0.39230    0.54740    0.84470    1.000
    H188     H        0.41470    0.57730    0.86160    1.000
    C284     C        0.32580    0.96140    0.73930    1.000
    H189     H        0.34360    0.99270    0.76120    1.000
    C285     C        0.32250    0.87140    0.74380    1.000
    H190     H        0.33830    0.84140    0.76760    1.000
    C286     C        0.29580    0.82630    0.71300    1.000
    C287     C        0.27450    0.87420    0.67950    1.000
    H191     H        0.25570    0.84560    0.65750    1.000
    C288     C        0.28040    0.96330    0.67780    1.000
    H192     H        0.26530    0.99540    0.65440    1.000
    N85      N        0.84700    0.66860    0.66420    1.000
    N86      N        0.93771    0.00960    0.44591    1.000
    N87      N        0.07028    0.48340    0.55910    1.000
    N88      N        0.91796    0.78600    0.55526    1.000
    N89      N        0.97277    0.73340    0.52880    1.000
    N90      N        0.95439    0.65900    0.58590    1.000
    N91      N        0.16090    0.46790    0.61140    1.000
    N92      N        0.27755    0.55680    0.72849    1.000
    N93      N        0.25942    0.69080    0.69005    1.000
    N94      N        0.31568    0.68750    0.74868    1.000
    N95      N        0.30600    0.00650    0.70700    1.000
    N96      N        0.38690    0.46310    0.85260    1.000
    Zn36     Zn       0.80958    0.64399    0.70410    1.000
    I85      I        0.84760    0.69513    0.77653    1.000
    I86      I        0.74098    0.70770    0.67225    1.000
    Zn37     Zn       0.93180    0.09970    0.39820    1.000
    I87      I        0.89527    0.23540    0.41590    1.000
    I88      I        0.99566    0.10570    0.37182    1.000
    Zn38     Zn       0.11969    0.40359    0.56513    1.000
    I89      I        0.10723    0.25390    0.59410    1.000
    I90      I        0.14170    0.41740    0.49620    1.000
    Zn39     Zn       0.82700    0.64400    0.71960    1.000
    I91      I        0.87400    0.67060    0.79162    1.000
    I92      I        0.76101    0.72760    0.69750    1.000
    Zn40     Zn       0.92490    0.10810    0.39780    1.000
    I93      I        0.89550    0.23860    0.42858    1.000
    I94      I        0.98796    0.12470    0.37020    1.000
    I95      I        0.10260    0.26470    0.60130    1.000
    I96      I        0.14490    0.43170    0.49850    1.000
