# CIF file generated by openbabel 3.1.0, see https://openbabel.org
data_I
_chemical_name_common 'FEDBEX_clean'
_cell_length_a 6.02
_cell_length_b 12.7722
_cell_length_c 13.1612
_cell_angle_alpha 118.829
_cell_angle_beta 90.609
_cell_angle_gamma 91.687
_space_group_name_H-M_alt 'P 1'
_space_group_name_Hall 'P 1'
loop_
    _symmetry_equiv_pos_as_xyz
    x,y,z
loop_
    _atom_site_label
    _atom_site_type_symbol
    _atom_site_fract_x
    _atom_site_fract_y
    _atom_site_fract_z
    _atom_site_occupancy
    Tm1      Tm       0.77803    0.66065    0.82171    1.000
    Tm2      Tm       0.22197    0.33935    0.17829    1.000
    H1       H        0.69280    0.53410    0.16070    1.000
    H2       H        0.08320    0.88190    0.07850    1.000
    H3       H        0.64620    0.55900    0.51510    1.000
    H4       H        0.30720    0.46590    0.83930    1.000
    H5       H        0.91680    0.11810    0.92150    1.000
    H6       H        0.35380    0.44100    0.48490    1.000
    C1       C        0.61060    0.51890    0.09450    1.000
    C2       C        0.68840    0.56630    0.02760    1.000
    C3       C        0.90400    0.64000    0.05440    1.000
    C4       C        0.88270    0.95070    0.90000    1.000
    C5       C        0.04730    0.92880    0.04470    1.000
    C6       C        0.75020    0.89300    0.78690    1.000
    C7       C        0.12390    0.53960    0.59660    1.000
    C8       C        0.79160    0.53480    0.51060    1.000
    C9       C        0.26180    0.59410    0.70610    1.000
    C10      C        0.38940    0.48110    0.90550    1.000
    C11      C        0.31160    0.43370    0.97240    1.000
    C12      C        0.09600    0.36000    0.94560    1.000
    C13      C        0.11730    0.04930    0.10000    1.000
    C14      C        0.95270    0.07120    0.95530    1.000
    C15      C        0.24980    0.10700    0.21310    1.000
    C16      C        0.87610    0.46040    0.40340    1.000
    C17      C        0.20840    0.46520    0.48940    1.000
    C18      C        0.73820    0.40590    0.29390    1.000
    N1       N        0.42360    0.45220    0.06990    1.000
    N2       N        0.92970    0.87890    0.94420    1.000
    N3       N        0.91420    0.57310    0.60860    1.000
    N4       N        0.57640    0.54780    0.93010    1.000
    N5       N        0.07030    0.12110    0.05580    1.000
    N6       N        0.08580    0.42690    0.39140    1.000
    O1       O        0.95030    0.67910    0.98530    1.000
    O2       O        0.02020    0.65560    0.13880    1.000
    O3       O        0.69340    0.78560    0.74800    1.000
    O4       O        0.69960    0.95600    0.74380    1.000
    O5       O        0.46310    0.56890    0.70400    1.000
    O6       O        0.16430    0.66580    0.79690    1.000
    O7       O        0.04970    0.32090    0.01470    1.000
    O8       O        0.97980    0.34440    0.86120    1.000
    O9       O        0.30660    0.21440    0.25200    1.000
    O10      O        0.30040    0.04400    0.25620    1.000
    O11      O        0.53690    0.43110    0.29600    1.000
    O12      O        0.83570    0.33420    0.20310    1.000
