# CIF file generated by openbabel 3.1.0, see https://openbabel.org
data_I
_chemical_name_common 'FIRNUR_clean'
_cell_length_a 15.673
_cell_length_b 15.673
_cell_length_c 18.532
_cell_angle_alpha 90
_cell_angle_beta 90
_cell_angle_gamma 120
_space_group_name_H-M_alt 'P 1'
_space_group_name_Hall 'P 1'
loop_
    _symmetry_equiv_pos_as_xyz
    x,y,z
loop_
    _atom_site_label
    _atom_site_type_symbol
    _atom_site_fract_x
    _atom_site_fract_y
    _atom_site_fract_z
    _atom_site_occupancy
    Ni1      Ni       0.00000    0.17763    0.16667    1.000
    Ni2      Ni       0.82237    0.82237    0.83333    1.000
    Ni3      Ni       0.17763    0.00000    0.50000    1.000
    H1       H        0.88520    0.88780    0.68003    1.000
    H2       H        0.56080    0.49560    0.73460    1.000
    H3       H        0.93480    0.43920    0.06793    1.000
    H4       H        0.39540    0.29710    0.65210    1.000
    H5       H        0.11220    0.99740    0.34670    1.000
    H6       H        0.95790    0.85210    0.08153    1.000
    H7       H        0.06100    0.52770    0.54930    1.000
    H8       H        0.34530    0.19950    0.55190    1.000
    H9       H        0.37380    0.31240    0.45320    1.000
    H10      H        0.85420    0.65470    0.88523    1.000
    H11      H        0.09830    0.70290    0.34790    1.000
    H12      H        0.04210    0.89420    0.25180    1.000
    H13      H        0.11480    0.00260    0.65330    1.000
    H14      H        0.88780    0.88520    0.98663    1.000
    H15      H        0.89420    0.04210    0.41487    1.000
    H16      H        0.47480    0.04390    0.05327    1.000
    H17      H        0.64220    0.70870    0.92187    1.000
    H18      H        0.14790    0.10580    0.74820    1.000
    H19      H        0.04390    0.47480    0.61340    1.000
    H20      H        0.00260    0.11480    0.01337    1.000
    H21      H        0.43920    0.93480    0.59873    1.000
    H22      H        0.29130    0.93350    0.58853    1.000
    H23      H        0.19950    0.34530    0.11477    1.000
    H24      H        0.70290    0.09830    0.31877    1.000
    H25      H        0.31240    0.37380    0.21347    1.000
    H26      H        0.29710    0.39540    0.01457    1.000
    H27      H        0.56910    0.52520    0.38660    1.000
    H28      H        0.52520    0.56910    0.28007    1.000
    H29      H        0.35780    0.06650    0.41147    1.000
    H30      H        0.06650    0.35780    0.25520    1.000
    H31      H        0.14580    0.80050    0.44810    1.000
    H32      H        0.70870    0.64220    0.74480    1.000
    H33      H        0.62620    0.93860    0.88013    1.000
    H34      H        0.47230    0.53330    0.21597    1.000
    H35      H        0.06140    0.68760    0.54680    1.000
    H36      H        0.10580    0.14790    0.91847    1.000
    H37      H        0.85210    0.95790    0.58513    1.000
    H38      H        0.93350    0.29130    0.07813    1.000
    H39      H        0.93900    0.46670    0.78403    1.000
    H40      H        0.06520    0.50440    0.26540    1.000
    H41      H        0.95610    0.43090    0.71993    1.000
    H42      H        0.60460    0.90170    0.68123    1.000
    H43      H        0.90170    0.60460    0.98543    1.000
    H44      H        0.50440    0.06520    0.40127    1.000
    H45      H        0.93860    0.62620    0.78653    1.000
    H46      H        0.65470    0.85420    0.78143    1.000
    H47      H        0.53330    0.47230    0.45070    1.000
    H48      H        0.99740    0.11220    0.31997    1.000
    H49      H        0.68760    0.06140    0.11987    1.000
    H50      H        0.52770    0.06100    0.11737    1.000
    H51      H        0.49560    0.56080    0.93207    1.000
    H52      H        0.46670    0.93900    0.88263    1.000
    H53      H        0.43090    0.95610    0.94673    1.000
    H54      H        0.80050    0.14580    0.21857    1.000
    C1       C        0.66370    0.62660    0.78220    1.000
    C2       C        0.67290    0.03700    0.07307    1.000
    C3       C        0.19230    0.12410    0.71010    1.000
    C4       C        0.21150    0.28100    0.95387    1.000
    C5       C        0.06950    0.78850    0.28720    1.000
    C6       C        0.80770    0.93180    0.62323    1.000
    C7       C        0.58710    0.01750    0.04087    1.000
    C8       C        0.17050    0.06500    0.65130    1.000
    C9       C        0.46430    0.03940    0.44177    1.000
    C10      C        0.02010    0.73610    0.63140    1.000
    C11      C        0.96280    0.78720    0.74243    1.000
    C12      C        0.00000    0.58620    0.16667    1.000
    C13      C        0.93050    0.71900    0.04613    1.000
    C14      C        0.90160    0.66380    0.98633    1.000
    C15      C        0.09840    0.76220    0.34700    1.000
    C16      C        0.17850    0.30660    0.07337    1.000
    C17      C        0.21280    0.17560    0.40910    1.000
    C18      C        0.01750    0.58710    0.62580    1.000
    C19      C        0.41290    0.43040    0.29247    1.000
    C20      C        0.89450    0.82950    0.98463    1.000
    C21      C        0.96290    0.33630    0.11553    1.000
    C22      C        0.69340    0.87190    0.74003    1.000
    C23      C        0.71900    0.93050    0.62053    1.000
    C24      C        0.66380    0.90160    0.68033    1.000
    C25      C        0.03710    0.37340    0.21780    1.000
    C26      C        0.17560    0.21280    0.25757    1.000
    C27      C        0.28100    0.21150    0.71280    1.000
    C28      C        0.28400    0.26390    0.36860    1.000
    C29      C        0.82150    0.12810    0.25997    1.000
    C30      C        0.03700    0.67290    0.59360    1.000
    C31      C        0.06500    0.17050    0.01537    1.000
    C32      C        0.26390    0.28400    0.29807    1.000
    C33      C        0.98250    0.56960    0.70753    1.000
    C34      C        0.33630    0.96290    0.55113    1.000
    C35      C        0.78850    0.06950    0.37947    1.000
    C36      C        0.36410    0.32710    0.40640    1.000
    C37      C        0.43040    0.41290    0.37420    1.000
    C38      C        0.97990    0.71600    0.70193    1.000
    C39      C        0.03720    0.82440    0.59090    1.000
    C40      C        0.76220    0.09840    0.31967    1.000
    C41      C        0.62660    0.66370    0.88447    1.000
    C42      C        0.57510    0.53570    0.77510    1.000
    C43      C        0.41380    0.41380    0.83333    1.000
    C44      C        0.58620    0.00000    0.50000    1.000
    C45      C        0.03380    0.72210    0.22360    1.000
    C46      C        0.96300    0.63590    0.73973    1.000
    C47      C        0.68830    0.96620    0.55693    1.000
    C48      C        0.06820    0.87590    0.28990    1.000
    C49      C        0.30660    0.17850    0.59330    1.000
    C50      C        0.87590    0.06820    0.37677    1.000
    C51      C        0.12810    0.82150    0.40670    1.000
    C52      C        0.96060    0.42490    0.10843    1.000
    C53      C        0.51100    0.51100    0.83333    1.000
    C54      C        0.87190    0.69340    0.92663    1.000
    C55      C        0.03940    0.46430    0.22490    1.000
    C56      C        0.27790    0.31170    0.89027    1.000
    C57      C        0.78720    0.96280    0.92423    1.000
    C58      C        0.53570    0.57510    0.89157    1.000
    C59      C        0.73610    0.02010    0.03527    1.000
    C60      C        0.72210    0.03380    0.44307    1.000
    C61      C        0.56960    0.98250    0.95913    1.000
    C62      C        0.37340    0.03710    0.44887    1.000
    C63      C        0.93500    0.10550    0.31797    1.000
    C64      C        0.12410    0.19230    0.95657    1.000
    C65      C        0.82440    0.03720    0.07577    1.000
    C66      C        0.33620    0.23780    0.65300    1.000
    C67      C        0.42490    0.96060    0.55823    1.000
    C68      C        0.93180    0.80770    0.04343    1.000
    C69      C        0.96620    0.68830    0.10973    1.000
    C70      C        0.82950    0.89450    0.68203    1.000
    C71      C        0.71600    0.97990    0.96473    1.000
    C72      C        0.32710    0.36410    0.26027    1.000
    C73      C        0.23780    0.33620    0.01367    1.000
    C74      C        0.10550    0.93500    0.34870    1.000
    C75      C        0.00000    0.48900    0.16667    1.000
    C76      C        0.48900    0.00000    0.50000    1.000
    C77      C        0.63590    0.96300    0.92693    1.000
    C78      C        0.31170    0.27790    0.77640    1.000
    N1       N        0.96490    0.60390    0.10823    1.000
    N2       N        0.91030    0.13210    0.25987    1.000
    N3       N        0.36100    0.39610    0.89177    1.000
    N4       N        0.77820    0.86790    0.74013    1.000
    N5       N        0.69110    0.69110    0.83333    1.000
    N6       N        0.00000    0.75240    0.16667    1.000
    N7       N        0.22180    0.08970    0.59320    1.000
    N8       N        0.51970    0.03700    0.07267    1.000
    N9       N        0.13210    0.91030    0.40680    1.000
    N10      N        0.48270    0.96300    0.92733    1.000
    N11      N        0.60390    0.96490    0.55843    1.000
    N12      N        0.03700    0.51970    0.59400    1.000
    N13      N        0.75240    0.00000    0.50000    1.000
    N14      N        0.51730    0.48030    0.40600    1.000
    N15      N        0.30890    0.00000    0.50000    1.000
    N16      N        0.86790    0.77820    0.92653    1.000
    N17      N        0.03510    0.63900    0.22510    1.000
    N18      N        0.39610    0.36100    0.77490    1.000
    N19      N        0.63900    0.03510    0.44157    1.000
    N20      N        0.24760    0.24760    0.83333    1.000
    N21      N        0.00000    0.30890    0.16667    1.000
    N22      N        0.08970    0.22180    0.07347    1.000
    N23      N        0.96300    0.48270    0.73933    1.000
    N24      N        0.48030    0.51730    0.26067    1.000
    O1       O        0.87450    0.11970    0.10347    1.000
    O2       O        0.15540    0.12520    0.25017    1.000
    O3       O        0.12550    0.24520    0.22987    1.000
    O4       O        0.96980    0.84460    0.58350    1.000
    O5       O        0.75480    0.88030    0.89653    1.000
    O6       O        0.12520    0.15540    0.41650    1.000
    O7       O        0.88030    0.75480    0.77013    1.000
    O8       O        0.24520    0.12550    0.43680    1.000
    O9       O        0.84460    0.96980    0.08317    1.000
    O10      O        0.11970    0.87450    0.56320    1.000
    O11      O        0.03020    0.87480    0.74983    1.000
    O12      O        0.87480    0.03020    0.91683    1.000
