# CIF file generated by openbabel 3.1.0, see https://openbabel.org
data_I
_chemical_name_common 'image0'
_cell_length_a 16.835
_cell_length_b 9.707
_cell_length_c 39.767
_cell_angle_alpha 90
_cell_angle_beta 90.522
_cell_angle_gamma 90
_space_group_name_H-M_alt 'P 1'
_space_group_name_Hall 'P 1'
loop_
    _symmetry_equiv_pos_as_xyz
    x,y,z
loop_
    _atom_site_label
    _atom_site_type_symbol
    _atom_site_fract_x
    _atom_site_fract_y
    _atom_site_fract_z
    _atom_site_occupancy
    Cu1      Cu       0.55023    0.71487    0.66665    1.000
    C1       C        0.66350    0.87940    0.51580    1.000
    C2       C        0.63620    0.98840    0.53460    1.000
    H1       H        0.59280    0.04130    0.52790    1.000
    C3       C        0.67820    0.01430    0.56460    1.000
    C4       C        0.73590    0.93280    0.57490    1.000
    H2       H        0.75940    0.94940    0.59570    1.000
    C5       C        0.76300    0.82330    0.55580    1.000
    H3       H        0.80640    0.77090    0.56280    1.000
    C6       C        0.72350    0.79550    0.52660    1.000
    H4       H        0.73750    0.71900    0.51390    1.000
    O1       O        0.62270    0.84440    0.48668    1.000
    O2       O        0.63820    0.04900    0.46420    1.000
    N1       N        0.49730    0.78630    0.37667    1.000
    C7       C        0.53810    0.70260    0.39610    1.000
    H5       H        0.54180    0.61080    0.38960    1.000
    C8       C        0.57470    0.74060    0.42460    1.000
    H6       H        0.60180    0.67670    0.43780    1.000
    C9       C        0.57110    0.87610    0.43380    1.000
    C10      C        0.53290    0.96780    0.41310    1.000
    H7       H        0.53060    0.06130    0.41810    1.000
    C11      C        0.49820    0.91490    0.38461    1.000
    H8       H        0.47360    0.97630    0.36990    1.000
    C12      C        0.61320    0.93570    0.46370    1.000
    N2       N        0.59770    0.56210    0.64087    1.000
    O3       O        0.65190    0.12820    0.58243    1.000
    O4       O        0.73900    0.26440    0.55830    1.000
    C13      C        0.65230    0.58650    0.61700    1.000
    H9       H        0.66930    0.67660    0.61370    1.000
    C14      C        0.68380    0.48450    0.59740    1.000
    H10      H        0.72510    0.50260    0.58270    1.000
    C15      C        0.65280    0.35560    0.60035    1.000
    C16      C        0.59880    0.32830    0.62360    1.000
    H11      H        0.57780    0.24020    0.62580    1.000
    C17      C        0.57440    0.43510    0.64450    1.000
    H12      H        0.53980    0.41470    0.66190    1.000
    C18      C        0.68550    0.24570    0.57810    1.000
    C19      C        0.58650    0.21950    0.89728    1.000
    C20      C        0.59660    0.29920    0.86780    1.000
    H13      H        0.64470    0.33630    0.86100    1.000
    C21      C        0.52180    0.31570    0.84960    1.000
    C22      C        0.45380    0.26710    0.85950    1.000
    H14      H        0.40880    0.27870    0.84610    1.000
    C23      C        0.44830    0.20000    0.88920    1.000
    H15      H        0.39910    0.17130    0.89700    1.000
    C24      C        0.51640    0.17440    0.90800    1.000
    H16      H        0.51310    0.12560    0.92800    1.000
    O5       O        0.65480    0.20520    0.91656    1.000
    O6       O        0.68040    0.01070    0.89170    1.000
    N3       N        0.89890    0.06990    0.97398    1.000
    C25      C        0.84660    0.17060    0.97730    1.000
    H17      H        0.85480    0.23520    0.99420    1.000
    C26      C        0.78310    0.18370    0.95750    1.000
    H18      H        0.74880    0.25810    0.95990    1.000
    C27      C        0.76940    0.08580    0.93378    1.000
    C28      C        0.82040    0.98050    0.93100    1.000
    H19      H        0.81140    0.91210    0.91500    1.000
    C29      C        0.88180    0.97440    0.95040    1.000
    H20      H        0.91620    0.90020    0.94800    1.000
    C30      C        0.69620    0.09390    0.91195    1.000
    O7       O        0.62610    0.26700    0.79760    1.000
    N4       N        0.56180    0.60510    0.70977    1.000
    O8       O        0.52690    0.39030    0.82025    1.000
    C31      C        0.50090    0.58840    0.72940    1.000
    H21      H        0.45310    0.62830    0.72270    1.000
    C32      C        0.50160    0.51800    0.75870    1.000
    H22      H        0.45790    0.51510    0.77280    1.000
    C33      C        0.57120    0.45110    0.76620    1.000
    C34      C        0.63450    0.46670    0.74580    1.000
    H23      H        0.68260    0.42420    0.75090    1.000
    C35      C        0.62700    0.54340    0.71850    1.000
    H24      H        0.67110    0.55350    0.70470    1.000
    C36      C        0.57990    0.36040    0.79640    1.000
    C37      C        0.26440    0.25560    0.76930    1.000
    C38      C        0.22980    0.20720    0.79820    1.000
    H25      H        0.23410    0.11530    0.80450    1.000
    C39      C        0.18860    0.30090    0.81724    1.000
    C40      C        0.17550    0.42980    0.80790    1.000
    H26      H        0.14500    0.48840    0.82110    1.000
    C41      C        0.21000    0.47800    0.77650    1.000
    H27      H        0.20100    0.56650    0.76830    1.000
    C42      C        0.25640    0.38460    0.75990    1.000
    H28      H        0.28360    0.41410    0.74090    1.000
    N5       N        0.05930    0.10230    0.95667    1.000
    O9       O        0.15010    0.25830    0.84668    1.000
    O10      O        0.26270    0.17760    0.86870    1.000
    C43      C        0.12080    0.03470    0.94880    1.000
    H29      H        0.13700    0.96310    0.96280    1.000
    C44      C        0.16600    0.06270    0.91990    1.000
    H30      H        0.21080    0.01070    0.91500    1.000
    C45      C        0.14350    0.16300    0.90029    1.000
    C46      C        0.07550    0.24240    0.90890    1.000
    H31      H        0.05800    0.31610    0.89590    1.000
    C47      C        0.03760    0.20300    0.93760    1.000
    H32      H        0.99280    0.25270    0.94390    1.000
    C48      C        0.19120    0.20120    0.86990    1.000
    N6       N        0.49660    0.86420    0.69297    1.000
    O11      O        0.30710    0.16280    0.74943    1.000
    O12      O        0.41820    0.22130    0.77530    1.000
    C49      C        0.53760    0.93200    0.71620    1.000
    H33      H        0.59170    0.91470    0.71860    1.000
    C50      C        0.50220    0.02820    0.73710    1.000
    H34      H        0.53170    0.07480    0.75340    1.000
    C51      C        0.42160    0.05280    0.73300    1.000
    C52      C        0.38540    0.98380    0.70918    1.000
    H35      H        0.33140    0.00060    0.70620    1.000
    C53      C        0.41850    0.89130    0.68860    1.000
    H36      H        0.38880    0.84730    0.67200    1.000
    C54      C        0.38510    0.15380    0.75490    1.000
    Cu2      Cu       0.44977    0.71487    0.33335    1.000
    C55      C        0.33650    0.87940    0.48420    1.000
    C56      C        0.36380    0.98840    0.46540    1.000
    H37      H        0.40720    0.04130    0.47210    1.000
    C57      C        0.32180    0.01430    0.43540    1.000
    C58      C        0.26410    0.93280    0.42510    1.000
    H38      H        0.24060    0.94940    0.40430    1.000
    C59      C        0.23700    0.82330    0.44420    1.000
    H39      H        0.19360    0.77090    0.43720    1.000
    C60      C        0.27650    0.79550    0.47340    1.000
    H40      H        0.26250    0.71900    0.48610    1.000
    O13      O        0.37730    0.84440    0.51332    1.000
    O14      O        0.36180    0.04900    0.53580    1.000
    N7       N        0.50270    0.78630    0.62333    1.000
    C61      C        0.46190    0.70260    0.60390    1.000
    H41      H        0.45820    0.61080    0.61040    1.000
    C62      C        0.42530    0.74060    0.57540    1.000
    H42      H        0.39820    0.67670    0.56220    1.000
    C63      C        0.42890    0.87610    0.56620    1.000
    C64      C        0.46710    0.96780    0.58690    1.000
    H43      H        0.46940    0.06130    0.58190    1.000
    C65      C        0.50180    0.91490    0.61539    1.000
    H44      H        0.52640    0.97630    0.63010    1.000
    C66      C        0.38680    0.93570    0.53630    1.000
    N8       N        0.40230    0.56210    0.35913    1.000
    O15      O        0.34810    0.12820    0.41757    1.000
    O16      O        0.26100    0.26440    0.44170    1.000
    C67      C        0.34770    0.58650    0.38300    1.000
    H45      H        0.33070    0.67660    0.38630    1.000
    C68      C        0.31620    0.48450    0.40260    1.000
    H46      H        0.27490    0.50260    0.41730    1.000
    C69      C        0.34720    0.35560    0.39965    1.000
    C70      C        0.40120    0.32830    0.37640    1.000
    H47      H        0.42220    0.24020    0.37420    1.000
    C71      C        0.42560    0.43510    0.35550    1.000
    H48      H        0.46020    0.41470    0.33810    1.000
    C72      C        0.31450    0.24570    0.42190    1.000
    C73      C        0.41350    0.21950    0.10272    1.000
    C74      C        0.40340    0.29920    0.13220    1.000
    H49      H        0.35530    0.33630    0.13900    1.000
    C75      C        0.47820    0.31570    0.15040    1.000
    C76      C        0.54620    0.26710    0.14050    1.000
    H50      H        0.59120    0.27870    0.15390    1.000
    C77      C        0.55170    0.20000    0.11080    1.000
    H51      H        0.60090    0.17130    0.10300    1.000
    C78      C        0.48360    0.17440    0.09200    1.000
    H52      H        0.48690    0.12560    0.07200    1.000
    O17      O        0.34520    0.20520    0.08344    1.000
    O18      O        0.31960    0.01070    0.10830    1.000
    N9       N        0.10110    0.06990    0.02602    1.000
    C79      C        0.15340    0.17060    0.02270    1.000
    H53      H        0.14520    0.23520    0.00580    1.000
    C80      C        0.21690    0.18370    0.04250    1.000
    H54      H        0.25120    0.25810    0.04010    1.000
    C81      C        0.23060    0.08580    0.06622    1.000
    C82      C        0.17960    0.98050    0.06900    1.000
    H55      H        0.18860    0.91210    0.08500    1.000
    C83      C        0.11820    0.97440    0.04960    1.000
    H56      H        0.08380    0.90020    0.05200    1.000
    C84      C        0.30380    0.09390    0.08805    1.000
    O19      O        0.37390    0.26700    0.20240    1.000
    N10      N        0.43820    0.60510    0.29023    1.000
    O20      O        0.47310    0.39030    0.17975    1.000
    C85      C        0.49910    0.58840    0.27060    1.000
    H57      H        0.54690    0.62830    0.27730    1.000
    C86      C        0.49840    0.51800    0.24130    1.000
    H58      H        0.54210    0.51510    0.22720    1.000
    C87      C        0.42880    0.45110    0.23380    1.000
    C88      C        0.36550    0.46670    0.25420    1.000
    H59      H        0.31740    0.42420    0.24910    1.000
    C89      C        0.37300    0.54340    0.28150    1.000
    H60      H        0.32890    0.55350    0.29530    1.000
    C90      C        0.42010    0.36040    0.20360    1.000
    C91      C        0.73560    0.25560    0.23070    1.000
    C92      C        0.77020    0.20720    0.20180    1.000
    H61      H        0.76590    0.11530    0.19550    1.000
    C93      C        0.81140    0.30090    0.18276    1.000
    C94      C        0.82450    0.42980    0.19210    1.000
    H62      H        0.85500    0.48840    0.17890    1.000
    C95      C        0.79000    0.47800    0.22350    1.000
    H63      H        0.79900    0.56650    0.23170    1.000
    C96      C        0.74360    0.38460    0.24010    1.000
    H64      H        0.71640    0.41410    0.25910    1.000
    N11      N        0.94070    0.10230    0.04333    1.000
    O21      O        0.84990    0.25830    0.15332    1.000
    O22      O        0.73730    0.17760    0.13130    1.000
    C97      C        0.87920    0.03470    0.05120    1.000
    H65      H        0.86300    0.96310    0.03720    1.000
    C98      C        0.83400    0.06270    0.08010    1.000
    H66      H        0.78920    0.01070    0.08500    1.000
    C99      C        0.85650    0.16300    0.09971    1.000
    C100     C        0.92450    0.24240    0.09110    1.000
    H67      H        0.94200    0.31610    0.10410    1.000
    C101     C        0.96240    0.20300    0.06240    1.000
    H68      H        0.00720    0.25270    0.05610    1.000
    C102     C        0.80880    0.20120    0.13010    1.000
    N12      N        0.50340    0.86420    0.30703    1.000
    O23      O        0.69290    0.16280    0.25057    1.000
    O24      O        0.58180    0.22130    0.22470    1.000
    C103     C        0.46240    0.93200    0.28380    1.000
    H69      H        0.40830    0.91470    0.28140    1.000
    C104     C        0.49780    0.02820    0.26290    1.000
    H70      H        0.46830    0.07480    0.24660    1.000
    C105     C        0.57840    0.05280    0.26700    1.000
    C106     C        0.61460    0.98380    0.29082    1.000
    H71      H        0.66860    0.00060    0.29380    1.000
    C107     C        0.58150    0.89130    0.31140    1.000
    H72      H        0.61120    0.84730    0.32800    1.000
    C108     C        0.61490    0.15380    0.24510    1.000
    Cu3      Cu       0.00000    0.06478    0.00000    1.000
    Cu4      Cu       0.05023    0.21487    0.66665    1.000
    C109     C        0.16350    0.37940    0.51580    1.000
    C110     C        0.13620    0.48840    0.53460    1.000
    H73      H        0.09280    0.54130    0.52790    1.000
    C111     C        0.17820    0.51430    0.56460    1.000
    C112     C        0.23590    0.43280    0.57490    1.000
    H74      H        0.25940    0.44940    0.59570    1.000
    C113     C        0.26300    0.32330    0.55580    1.000
    H75      H        0.30640    0.27090    0.56280    1.000
    C114     C        0.22350    0.29550    0.52660    1.000
    H76      H        0.23750    0.21900    0.51390    1.000
    O25      O        0.12270    0.34440    0.48668    1.000
    O26      O        0.13820    0.54900    0.46420    1.000
    N13      N        0.99730    0.28630    0.37667    1.000
    C115     C        0.03810    0.20260    0.39610    1.000
    H77      H        0.04180    0.11080    0.38960    1.000
    C116     C        0.07470    0.24060    0.42460    1.000
    H78      H        0.10180    0.17670    0.43780    1.000
    C117     C        0.07110    0.37610    0.43380    1.000
    C118     C        0.03290    0.46780    0.41310    1.000
    H79      H        0.03060    0.56130    0.41810    1.000
    C119     C        0.99820    0.41490    0.38461    1.000
    H80      H        0.97360    0.47630    0.36990    1.000
    C120     C        0.11320    0.43570    0.46370    1.000
    N14      N        0.09770    0.06210    0.64087    1.000
    O27      O        0.15190    0.62820    0.58243    1.000
    O28      O        0.23900    0.76440    0.55830    1.000
    C121     C        0.15230    0.08650    0.61700    1.000
    H81      H        0.16930    0.17660    0.61370    1.000
    C122     C        0.18380    0.98450    0.59740    1.000
    H82      H        0.22510    0.00260    0.58270    1.000
    C123     C        0.15280    0.85560    0.60035    1.000
    C124     C        0.09880    0.82830    0.62360    1.000
    H83      H        0.07780    0.74020    0.62580    1.000
    C125     C        0.07440    0.93510    0.64450    1.000
    H84      H        0.03980    0.91470    0.66190    1.000
    C126     C        0.18550    0.74570    0.57810    1.000
    C127     C        0.08650    0.71950    0.89728    1.000
    C128     C        0.09660    0.79920    0.86780    1.000
    H85      H        0.14470    0.83630    0.86100    1.000
    C129     C        0.02180    0.81570    0.84960    1.000
    C130     C        0.95380    0.76710    0.85950    1.000
    H86      H        0.90880    0.77870    0.84610    1.000
    C131     C        0.94830    0.70000    0.88920    1.000
    H87      H        0.89910    0.67130    0.89700    1.000
    C132     C        0.01640    0.67440    0.90800    1.000
    H88      H        0.01310    0.62560    0.92800    1.000
    O29      O        0.15480    0.70520    0.91656    1.000
    O30      O        0.18040    0.51070    0.89170    1.000
    N15      N        0.39890    0.56990    0.97398    1.000
    C133     C        0.34660    0.67060    0.97730    1.000
    H89      H        0.35480    0.73520    0.99420    1.000
    C134     C        0.28310    0.68370    0.95750    1.000
    H90      H        0.24880    0.75810    0.95990    1.000
    C135     C        0.26940    0.58580    0.93378    1.000
    C136     C        0.32040    0.48050    0.93100    1.000
    H91      H        0.31140    0.41210    0.91500    1.000
    C137     C        0.38180    0.47440    0.95040    1.000
    H92      H        0.41620    0.40020    0.94800    1.000
    C138     C        0.19620    0.59390    0.91195    1.000
    O31      O        0.12610    0.76700    0.79760    1.000
    N16      N        0.06180    0.10510    0.70977    1.000
    O32      O        0.02690    0.89030    0.82025    1.000
    C139     C        0.00090    0.08840    0.72940    1.000
    H93      H        0.95310    0.12830    0.72270    1.000
    C140     C        0.00160    0.01800    0.75870    1.000
    H94      H        0.95790    0.01510    0.77280    1.000
    C141     C        0.07120    0.95110    0.76620    1.000
    C142     C        0.13450    0.96670    0.74580    1.000
    H95      H        0.18260    0.92420    0.75090    1.000
    C143     C        0.12700    0.04340    0.71850    1.000
    H96      H        0.17110    0.05350    0.70470    1.000
    C144     C        0.07990    0.86040    0.79640    1.000
    C145     C        0.76440    0.75560    0.76930    1.000
    C146     C        0.72980    0.70720    0.79820    1.000
    H97      H        0.73410    0.61530    0.80450    1.000
    C147     C        0.68860    0.80090    0.81724    1.000
    C148     C        0.67550    0.92980    0.80790    1.000
    H98      H        0.64500    0.98840    0.82110    1.000
    C149     C        0.71000    0.97800    0.77650    1.000
    H99      H        0.70100    0.06650    0.76830    1.000
    C150     C        0.75640    0.88460    0.75990    1.000
    H100     H        0.78360    0.91410    0.74090    1.000
    N17      N        0.55930    0.60230    0.95667    1.000
    O33      O        0.65010    0.75830    0.84668    1.000
    O34      O        0.76270    0.67760    0.86870    1.000
    C151     C        0.62080    0.53470    0.94880    1.000
    H101     H        0.63700    0.46310    0.96280    1.000
    C152     C        0.66600    0.56270    0.91990    1.000
    H102     H        0.71080    0.51070    0.91500    1.000
    C153     C        0.64350    0.66300    0.90029    1.000
    C154     C        0.57550    0.74240    0.90890    1.000
    H103     H        0.55800    0.81610    0.89590    1.000
    C155     C        0.53760    0.70300    0.93760    1.000
    H104     H        0.49280    0.75270    0.94390    1.000
    C156     C        0.69120    0.70120    0.86990    1.000
    N18      N        0.99660    0.36420    0.69297    1.000
    O35      O        0.80710    0.66280    0.74943    1.000
    O36      O        0.91820    0.72130    0.77530    1.000
    C157     C        0.03760    0.43200    0.71620    1.000
    H105     H        0.09170    0.41470    0.71860    1.000
    C158     C        0.00220    0.52820    0.73710    1.000
    H106     H        0.03170    0.57480    0.75340    1.000
    C159     C        0.92160    0.55280    0.73300    1.000
    C160     C        0.88540    0.48380    0.70918    1.000
    H107     H        0.83140    0.50060    0.70620    1.000
    C161     C        0.91850    0.39130    0.68860    1.000
    H108     H        0.88880    0.34730    0.67200    1.000
    C162     C        0.88510    0.65380    0.75490    1.000
    Cu5      Cu       0.94977    0.21487    0.33335    1.000
    C163     C        0.83650    0.37940    0.48420    1.000
    C164     C        0.86380    0.48840    0.46540    1.000
    H109     H        0.90720    0.54130    0.47210    1.000
    C165     C        0.82180    0.51430    0.43540    1.000
    C166     C        0.76410    0.43280    0.42510    1.000
    H110     H        0.74060    0.44940    0.40430    1.000
    C167     C        0.73700    0.32330    0.44420    1.000
    H111     H        0.69360    0.27090    0.43720    1.000
    C168     C        0.77650    0.29550    0.47340    1.000
    H112     H        0.76250    0.21900    0.48610    1.000
    O37      O        0.87730    0.34440    0.51332    1.000
    O38      O        0.86180    0.54900    0.53580    1.000
    N19      N        0.00270    0.28630    0.62333    1.000
    C169     C        0.96190    0.20260    0.60390    1.000
    H113     H        0.95820    0.11080    0.61040    1.000
    C170     C        0.92530    0.24060    0.57540    1.000
    H114     H        0.89820    0.17670    0.56220    1.000
    C171     C        0.92890    0.37610    0.56620    1.000
    C172     C        0.96710    0.46780    0.58690    1.000
    H115     H        0.96940    0.56130    0.58190    1.000
    C173     C        0.00180    0.41490    0.61539    1.000
    H116     H        0.02640    0.47630    0.63010    1.000
    C174     C        0.88680    0.43570    0.53630    1.000
    N20      N        0.90230    0.06210    0.35913    1.000
    O39      O        0.84810    0.62820    0.41757    1.000
    O40      O        0.76100    0.76440    0.44170    1.000
    C175     C        0.84770    0.08650    0.38300    1.000
    H117     H        0.83070    0.17660    0.38630    1.000
    C176     C        0.81620    0.98450    0.40260    1.000
    H118     H        0.77490    0.00260    0.41730    1.000
    C177     C        0.84720    0.85560    0.39965    1.000
    C178     C        0.90120    0.82830    0.37640    1.000
    H119     H        0.92220    0.74020    0.37420    1.000
    C179     C        0.92560    0.93510    0.35550    1.000
    H120     H        0.96020    0.91470    0.33810    1.000
    C180     C        0.81450    0.74570    0.42190    1.000
    C181     C        0.91350    0.71950    0.10272    1.000
    C182     C        0.90340    0.79920    0.13220    1.000
    H121     H        0.85530    0.83630    0.13900    1.000
    C183     C        0.97820    0.81570    0.15040    1.000
    C184     C        0.04620    0.76710    0.14050    1.000
    H122     H        0.09120    0.77870    0.15390    1.000
    C185     C        0.05170    0.70000    0.11080    1.000
    H123     H        0.10090    0.67130    0.10300    1.000
    C186     C        0.98360    0.67440    0.09200    1.000
    H124     H        0.98690    0.62560    0.07200    1.000
    O41      O        0.84520    0.70520    0.08344    1.000
    O42      O        0.81960    0.51070    0.10830    1.000
    N21      N        0.60110    0.56990    0.02602    1.000
    C187     C        0.65340    0.67060    0.02270    1.000
    H125     H        0.64520    0.73520    0.00580    1.000
    C188     C        0.71690    0.68370    0.04250    1.000
    H126     H        0.75120    0.75810    0.04010    1.000
    C189     C        0.73060    0.58580    0.06622    1.000
    C190     C        0.67960    0.48050    0.06900    1.000
    H127     H        0.68860    0.41210    0.08500    1.000
    C191     C        0.61820    0.47440    0.04960    1.000
    H128     H        0.58380    0.40020    0.05200    1.000
    C192     C        0.80380    0.59390    0.08805    1.000
    O43      O        0.87390    0.76700    0.20240    1.000
    N22      N        0.93820    0.10510    0.29023    1.000
    O44      O        0.97310    0.89030    0.17975    1.000
    C193     C        0.99910    0.08840    0.27060    1.000
    H129     H        0.04690    0.12830    0.27730    1.000
    C194     C        0.99840    0.01800    0.24130    1.000
    H130     H        0.04210    0.01510    0.22720    1.000
    C195     C        0.92880    0.95110    0.23380    1.000
    C196     C        0.86550    0.96670    0.25420    1.000
    H131     H        0.81740    0.92420    0.24910    1.000
    C197     C        0.87300    0.04340    0.28150    1.000
    H132     H        0.82890    0.05350    0.29530    1.000
    C198     C        0.92010    0.86040    0.20360    1.000
    C199     C        0.23560    0.75560    0.23070    1.000
    C200     C        0.27020    0.70720    0.20180    1.000
    H133     H        0.26590    0.61530    0.19550    1.000
    C201     C        0.31140    0.80090    0.18276    1.000
    C202     C        0.32450    0.92980    0.19210    1.000
    H134     H        0.35500    0.98840    0.17890    1.000
    C203     C        0.29000    0.97800    0.22350    1.000
    H135     H        0.29900    0.06650    0.23170    1.000
    C204     C        0.24360    0.88460    0.24010    1.000
    H136     H        0.21640    0.91410    0.25910    1.000
    N23      N        0.44070    0.60230    0.04333    1.000
    O45      O        0.34990    0.75830    0.15332    1.000
    O46      O        0.23730    0.67760    0.13130    1.000
    C205     C        0.37920    0.53470    0.05120    1.000
    H137     H        0.36300    0.46310    0.03720    1.000
    C206     C        0.33400    0.56270    0.08010    1.000
    H138     H        0.28920    0.51070    0.08500    1.000
    C207     C        0.35650    0.66300    0.09971    1.000
    C208     C        0.42450    0.74240    0.09110    1.000
    H139     H        0.44200    0.81610    0.10410    1.000
    C209     C        0.46240    0.70300    0.06240    1.000
    H140     H        0.50720    0.75270    0.05610    1.000
    C210     C        0.30880    0.70120    0.13010    1.000
    N24      N        0.00340    0.36420    0.30703    1.000
    O47      O        0.19290    0.66280    0.25057    1.000
    O48      O        0.08180    0.72130    0.22470    1.000
    C211     C        0.96240    0.43200    0.28380    1.000
    H141     H        0.90830    0.41470    0.28140    1.000
    C212     C        0.99780    0.52820    0.26290    1.000
    H142     H        0.96830    0.57480    0.24660    1.000
    C213     C        0.07840    0.55280    0.26700    1.000
    C214     C        0.11460    0.48380    0.29082    1.000
    H143     H        0.16860    0.50060    0.29380    1.000
    C215     C        0.08150    0.39130    0.31140    1.000
    H144     H        0.11120    0.34730    0.32800    1.000
    C216     C        0.11490    0.65380    0.24510    1.000
    Cu6      Cu       0.50000    0.56478    0.00000    1.000
