# CIF file generated by openbabel 3.1.0, see https://openbabel.org
data_I
_chemical_name_common 'image0'
_cell_length_a 32.0941
_cell_length_b 32.0941
_cell_length_c 32.0941
_cell_angle_alpha 90
_cell_angle_beta 90
_cell_angle_gamma 90
_space_group_name_H-M_alt 'P 1'
_space_group_name_Hall 'P 1'
loop_
    _symmetry_equiv_pos_as_xyz
    x,y,z
loop_
    _atom_site_label
    _atom_site_type_symbol
    _atom_site_fract_x
    _atom_site_fract_y
    _atom_site_fract_z
    _atom_site_occupancy
    O1       O        0.89650    0.51750    0.49620    1.000
    O2       O        0.91371    0.48141    0.44098    1.000
    C1       C        0.78760    0.40476    0.49090    1.000
    C2       C        0.79640    0.43600    0.51940    1.000
    H1       H        0.77980    0.43880    0.54370    1.000
    C3       C        0.85480    0.45770    0.47850    1.000
    C4       C        0.82870    0.46260    0.51280    1.000
    H2       H        0.83340    0.48490    0.53170    1.000
    C5       C        0.84460    0.42700    0.45100    1.000
    H3       H        0.86040    0.42470    0.42610    1.000
    C6       C        0.89170    0.48790    0.47090    1.000
    C7       C        0.81350    0.39990    0.45720    1.000
    H4       H        0.80940    0.37740    0.43830    1.000
    O3       O        0.39650    0.01750    0.99620    1.000
    O4       O        0.41371    0.98141    0.94098    1.000
    C8       C        0.28760    0.90476    0.99090    1.000
    C9       C        0.29640    0.93600    0.01940    1.000
    H5       H        0.27980    0.93880    0.04370    1.000
    C10      C        0.35480    0.95770    0.97850    1.000
    C11      C        0.32870    0.96260    0.01280    1.000
    H6       H        0.33340    0.98490    0.03170    1.000
    C12      C        0.34460    0.92700    0.95100    1.000
    H7       H        0.36040    0.92470    0.92610    1.000
    C13      C        0.39170    0.98790    0.97090    1.000
    C14      C        0.31350    0.89990    0.95720    1.000
    H8       H        0.30940    0.87740    0.93830    1.000
    O5       O        0.60350    0.48250    0.99620    1.000
    O6       O        0.58629    0.51859    0.94098    1.000
    C15      C        0.71240    0.59524    0.99090    1.000
    C16      C        0.70360    0.56400    0.01940    1.000
    H9       H        0.72020    0.56120    0.04370    1.000
    C17      C        0.64520    0.54230    0.97850    1.000
    C18      C        0.67130    0.53740    0.01280    1.000
    H10      H        0.66660    0.51510    0.03170    1.000
    C19      C        0.65540    0.57300    0.95100    1.000
    H11      H        0.63960    0.57530    0.92610    1.000
    C20      C        0.60830    0.51210    0.97090    1.000
    C21      C        0.68650    0.60010    0.95720    1.000
    H12      H        0.69060    0.62260    0.93830    1.000
    O7       O        0.10350    0.98250    0.49620    1.000
    O8       O        0.08629    0.01859    0.44098    1.000
    C22      C        0.21240    0.09524    0.49090    1.000
    C23      C        0.20360    0.06400    0.51940    1.000
    H13      H        0.22020    0.06120    0.54370    1.000
    C24      C        0.14520    0.04230    0.47850    1.000
    C25      C        0.17130    0.03740    0.51280    1.000
    H14      H        0.16660    0.01510    0.53170    1.000
    C26      C        0.15540    0.07300    0.45100    1.000
    H15      H        0.13960    0.07530    0.42610    1.000
    C27      C        0.10830    0.01210    0.47090    1.000
    C28      C        0.18650    0.10010    0.45720    1.000
    H16      H        0.19060    0.12260    0.43830    1.000
    O9       O        0.10350    0.01750    0.00380    1.000
    O10      O        0.08629    0.98141    0.05902    1.000
    C29      C        0.21240    0.90476    0.00910    1.000
    C30      C        0.20360    0.93600    0.98060    1.000
    H17      H        0.22020    0.93880    0.95630    1.000
    C31      C        0.14520    0.95770    0.02150    1.000
    C32      C        0.17130    0.96260    0.98720    1.000
    H18      H        0.16660    0.98490    0.96830    1.000
    C33      C        0.15540    0.92700    0.04900    1.000
    H19      H        0.13960    0.92470    0.07390    1.000
    C34      C        0.10830    0.98790    0.02910    1.000
    C35      C        0.18650    0.89990    0.04280    1.000
    H20      H        0.19060    0.87740    0.06170    1.000
    O11      O        0.60350    0.51750    0.50380    1.000
    O12      O        0.58629    0.48141    0.55902    1.000
    C36      C        0.71240    0.40476    0.50910    1.000
    C37      C        0.70360    0.43600    0.48060    1.000
    H21      H        0.72020    0.43880    0.45630    1.000
    C38      C        0.64520    0.45770    0.52150    1.000
    C39      C        0.67130    0.46260    0.48720    1.000
    H22      H        0.66660    0.48490    0.46830    1.000
    C40      C        0.65540    0.42700    0.54900    1.000
    H23      H        0.63960    0.42470    0.57390    1.000
    C41      C        0.60830    0.48790    0.52910    1.000
    C42      C        0.68650    0.39990    0.54280    1.000
    H24      H        0.69060    0.37740    0.56170    1.000
    O13      O        0.39650    0.98250    0.50380    1.000
    O14      O        0.41371    0.01859    0.55902    1.000
    C43      C        0.28760    0.09524    0.50910    1.000
    C44      C        0.29640    0.06400    0.48060    1.000
    H25      H        0.27980    0.06120    0.45630    1.000
    C45      C        0.35480    0.04230    0.52150    1.000
    C46      C        0.32870    0.03740    0.48720    1.000
    H26      H        0.33340    0.01510    0.46830    1.000
    C47      C        0.34460    0.07300    0.54900    1.000
    H27      H        0.36040    0.07530    0.57390    1.000
    C48      C        0.39170    0.01210    0.52910    1.000
    C49      C        0.31350    0.10010    0.54280    1.000
    H28      H        0.30940    0.12260    0.56170    1.000
    O15      O        0.89650    0.48250    0.00380    1.000
    O16      O        0.91371    0.51859    0.05902    1.000
    C50      C        0.78760    0.59524    0.00910    1.000
    C51      C        0.79640    0.56400    0.98060    1.000
    H29      H        0.77980    0.56120    0.95630    1.000
    C52      C        0.85480    0.54230    0.02150    1.000
    C53      C        0.82870    0.53740    0.98720    1.000
    H30      H        0.83340    0.51510    0.96830    1.000
    C54      C        0.84460    0.57300    0.04900    1.000
    H31      H        0.86040    0.57530    0.07390    1.000
    C55      C        0.89170    0.51210    0.02910    1.000
    C56      C        0.81350    0.60010    0.04280    1.000
    H32      H        0.80940    0.62260    0.06170    1.000
    O17      O        0.49620    0.89650    0.51750    1.000
    O18      O        0.44098    0.91371    0.48141    1.000
    C57      C        0.49090    0.78760    0.40476    1.000
    C58      C        0.51940    0.79640    0.43600    1.000
    H33      H        0.54370    0.77980    0.43880    1.000
    C59      C        0.47850    0.85480    0.45770    1.000
    C60      C        0.51280    0.82870    0.46260    1.000
    H34      H        0.53170    0.83340    0.48490    1.000
    C61      C        0.45100    0.84460    0.42700    1.000
    H35      H        0.42610    0.86040    0.42470    1.000
    C62      C        0.47090    0.89170    0.48790    1.000
    C63      C        0.45720    0.81350    0.39990    1.000
    H36      H        0.43830    0.80940    0.37740    1.000
    O19      O        0.99620    0.39650    0.01750    1.000
    O20      O        0.94098    0.41371    0.98141    1.000
    C64      C        0.99090    0.28760    0.90476    1.000
    C65      C        0.01940    0.29640    0.93600    1.000
    H37      H        0.04370    0.27980    0.93880    1.000
    C66      C        0.97850    0.35480    0.95770    1.000
    C67      C        0.01280    0.32870    0.96260    1.000
    H38      H        0.03170    0.33340    0.98490    1.000
    C68      C        0.95100    0.34460    0.92700    1.000
    H39      H        0.92610    0.36040    0.92470    1.000
    C69      C        0.97090    0.39170    0.98790    1.000
    C70      C        0.95720    0.31350    0.89990    1.000
    H40      H        0.93830    0.30940    0.87740    1.000
    O21      O        0.99620    0.60350    0.48250    1.000
    O22      O        0.94098    0.58629    0.51859    1.000
    C71      C        0.99090    0.71240    0.59524    1.000
    C72      C        0.01940    0.70360    0.56400    1.000
    H41      H        0.04370    0.72020    0.56120    1.000
    C73      C        0.97850    0.64520    0.54230    1.000
    C74      C        0.01280    0.67130    0.53740    1.000
    H42      H        0.03170    0.66660    0.51510    1.000
    C75      C        0.95100    0.65540    0.57300    1.000
    H43      H        0.92610    0.63960    0.57530    1.000
    C76      C        0.97090    0.60830    0.51210    1.000
    C77      C        0.95720    0.68650    0.60010    1.000
    H44      H        0.93830    0.69060    0.62260    1.000
    O23      O        0.49620    0.10350    0.98250    1.000
    O24      O        0.44098    0.08629    0.01859    1.000
    C78      C        0.49090    0.21240    0.09524    1.000
    C79      C        0.51940    0.20360    0.06400    1.000
    H45      H        0.54370    0.22020    0.06120    1.000
    C80      C        0.47850    0.14520    0.04230    1.000
    C81      C        0.51280    0.17130    0.03740    1.000
    H46      H        0.53170    0.16660    0.01510    1.000
    C82      C        0.45100    0.15540    0.07300    1.000
    H47      H        0.42610    0.13960    0.07530    1.000
    C83      C        0.47090    0.10830    0.01210    1.000
    C84      C        0.45720    0.18650    0.10010    1.000
    H48      H        0.43830    0.19060    0.12260    1.000
    O25      O        0.00380    0.10350    0.01750    1.000
    O26      O        0.05902    0.08629    0.98141    1.000
    C85      C        0.00910    0.21240    0.90476    1.000
    C86      C        0.98060    0.20360    0.93600    1.000
    H49      H        0.95630    0.22020    0.93880    1.000
    C87      C        0.02150    0.14520    0.95770    1.000
    C88      C        0.98720    0.17130    0.96260    1.000
    H50      H        0.96830    0.16660    0.98490    1.000
    C89      C        0.04900    0.15540    0.92700    1.000
    H51      H        0.07390    0.13960    0.92470    1.000
    C90      C        0.02910    0.10830    0.98790    1.000
    C91      C        0.04280    0.18650    0.89990    1.000
    H52      H        0.06170    0.19060    0.87740    1.000
    O27      O        0.50380    0.60350    0.51750    1.000
    O28      O        0.55902    0.58629    0.48141    1.000
    C92      C        0.50910    0.71240    0.40476    1.000
    C93      C        0.48060    0.70360    0.43600    1.000
    H53      H        0.45630    0.72020    0.43880    1.000
    C94      C        0.52150    0.64520    0.45770    1.000
    C95      C        0.48720    0.67130    0.46260    1.000
    H54      H        0.46830    0.66660    0.48490    1.000
    C96      C        0.54900    0.65540    0.42700    1.000
    H55      H        0.57390    0.63960    0.42470    1.000
    C97      C        0.52910    0.60830    0.48790    1.000
    C98      C        0.54280    0.68650    0.39990    1.000
    H56      H        0.56170    0.69060    0.37740    1.000
    O29      O        0.50380    0.39650    0.98250    1.000
    O30      O        0.55902    0.41371    0.01859    1.000
    C99      C        0.50910    0.28760    0.09524    1.000
    C100     C        0.48060    0.29640    0.06400    1.000
    H57      H        0.45630    0.27980    0.06120    1.000
    C101     C        0.52150    0.35480    0.04230    1.000
    C102     C        0.48720    0.32870    0.03740    1.000
    H58      H        0.46830    0.33340    0.01510    1.000
    C103     C        0.54900    0.34460    0.07300    1.000
    H59      H        0.57390    0.36040    0.07530    1.000
    C104     C        0.52910    0.39170    0.01210    1.000
    C105     C        0.54280    0.31350    0.10010    1.000
    H60      H        0.56170    0.30940    0.12260    1.000
    O31      O        0.00380    0.89650    0.48250    1.000
    O32      O        0.05902    0.91371    0.51859    1.000
    C106     C        0.00910    0.78760    0.59524    1.000
    C107     C        0.98060    0.79640    0.56400    1.000
    H61      H        0.95630    0.77980    0.56120    1.000
    C108     C        0.02150    0.85480    0.54230    1.000
    C109     C        0.98720    0.82870    0.53740    1.000
    H62      H        0.96830    0.83340    0.51510    1.000
    C110     C        0.04900    0.84460    0.57300    1.000
    H63      H        0.07390    0.86040    0.57530    1.000
    C111     C        0.02910    0.89170    0.51210    1.000
    C112     C        0.04280    0.81350    0.60010    1.000
    H64      H        0.06170    0.80940    0.62260    1.000
    O33      O        0.51750    0.49620    0.89650    1.000
    O34      O        0.48141    0.44098    0.91371    1.000
    C113     C        0.40476    0.49090    0.78760    1.000
    C114     C        0.43600    0.51940    0.79640    1.000
    H65      H        0.43880    0.54370    0.77980    1.000
    C115     C        0.45770    0.47850    0.85480    1.000
    C116     C        0.46260    0.51280    0.82870    1.000
    H66      H        0.48490    0.53170    0.83340    1.000
    C117     C        0.42700    0.45100    0.84460    1.000
    H67      H        0.42470    0.42610    0.86040    1.000
    C118     C        0.48790    0.47090    0.89170    1.000
    C119     C        0.39990    0.45720    0.81350    1.000
    H68      H        0.37740    0.43830    0.80940    1.000
    O35      O        0.01750    0.99620    0.39650    1.000
    O36      O        0.98141    0.94098    0.41371    1.000
    C120     C        0.90476    0.99090    0.28760    1.000
    C121     C        0.93600    0.01940    0.29640    1.000
    H69      H        0.93880    0.04370    0.27980    1.000
    C122     C        0.95770    0.97850    0.35480    1.000
    C123     C        0.96260    0.01280    0.32870    1.000
    H70      H        0.98490    0.03170    0.33340    1.000
    C124     C        0.92700    0.95100    0.34460    1.000
    H71      H        0.92470    0.92610    0.36040    1.000
    C125     C        0.98790    0.97090    0.39170    1.000
    C126     C        0.89990    0.95720    0.31350    1.000
    H72      H        0.87740    0.93830    0.30940    1.000
    O37      O        0.48250    0.99620    0.60350    1.000
    O38      O        0.51859    0.94098    0.58629    1.000
    C127     C        0.59524    0.99090    0.71240    1.000
    C128     C        0.56400    0.01940    0.70360    1.000
    H73      H        0.56120    0.04370    0.72020    1.000
    C129     C        0.54230    0.97850    0.64520    1.000
    C130     C        0.53740    0.01280    0.67130    1.000
    H74      H        0.51510    0.03170    0.66660    1.000
    C131     C        0.57300    0.95100    0.65540    1.000
    H75      H        0.57530    0.92610    0.63960    1.000
    C132     C        0.51210    0.97090    0.60830    1.000
    C133     C        0.60010    0.95720    0.68650    1.000
    H76      H        0.62260    0.93830    0.69060    1.000
    O39      O        0.98250    0.49620    0.10350    1.000
    O40      O        0.01859    0.44098    0.08629    1.000
    C134     C        0.09524    0.49090    0.21240    1.000
    C135     C        0.06400    0.51940    0.20360    1.000
    H77      H        0.06120    0.54370    0.22020    1.000
    C136     C        0.04230    0.47850    0.14520    1.000
    C137     C        0.03740    0.51280    0.17130    1.000
    H78      H        0.01510    0.53170    0.16660    1.000
    C138     C        0.07300    0.45100    0.15540    1.000
    H79      H        0.07530    0.42610    0.13960    1.000
    C139     C        0.01210    0.47090    0.10830    1.000
    C140     C        0.10010    0.45720    0.18650    1.000
    H80      H        0.12260    0.43830    0.19060    1.000
    O41      O        0.01750    0.00380    0.10350    1.000
    O42      O        0.98141    0.05902    0.08629    1.000
    C141     C        0.90476    0.00910    0.21240    1.000
    C142     C        0.93600    0.98060    0.20360    1.000
    H81      H        0.93880    0.95630    0.22020    1.000
    C143     C        0.95770    0.02150    0.14520    1.000
    C144     C        0.96260    0.98720    0.17130    1.000
    H82      H        0.98490    0.96830    0.16660    1.000
    C145     C        0.92700    0.04900    0.15540    1.000
    H83      H        0.92470    0.07390    0.13960    1.000
    C146     C        0.98790    0.02910    0.10830    1.000
    C147     C        0.89990    0.04280    0.18650    1.000
    H84      H        0.87740    0.06170    0.19060    1.000
    O43      O        0.51750    0.50380    0.60350    1.000
    O44      O        0.48141    0.55902    0.58629    1.000
    C148     C        0.40476    0.50910    0.71240    1.000
    C149     C        0.43600    0.48060    0.70360    1.000
    H85      H        0.43880    0.45630    0.72020    1.000
    C150     C        0.45770    0.52150    0.64520    1.000
    C151     C        0.46260    0.48720    0.67130    1.000
    H86      H        0.48490    0.46830    0.66660    1.000
    C152     C        0.42700    0.54900    0.65540    1.000
    H87      H        0.42470    0.57390    0.63960    1.000
    C153     C        0.48790    0.52910    0.60830    1.000
    C154     C        0.39990    0.54280    0.68650    1.000
    H88      H        0.37740    0.56170    0.69060    1.000
    O45      O        0.98250    0.50380    0.39650    1.000
    O46      O        0.01859    0.55902    0.41371    1.000
    C155     C        0.09524    0.50910    0.28760    1.000
    C156     C        0.06400    0.48060    0.29640    1.000
    H89      H        0.06120    0.45630    0.27980    1.000
    C157     C        0.04230    0.52150    0.35480    1.000
    C158     C        0.03740    0.48720    0.32870    1.000
    H90      H        0.01510    0.46830    0.33340    1.000
    C159     C        0.07300    0.54900    0.34460    1.000
    H91      H        0.07530    0.57390    0.36040    1.000
    C160     C        0.01210    0.52910    0.39170    1.000
    C161     C        0.10010    0.54280    0.31350    1.000
    H92      H        0.12260    0.56170    0.30940    1.000
    O47      O        0.48250    0.00380    0.89650    1.000
    O48      O        0.51859    0.05902    0.91371    1.000
    C162     C        0.59524    0.00910    0.78760    1.000
    C163     C        0.56400    0.98060    0.79640    1.000
    H93      H        0.56120    0.95630    0.77980    1.000
    C164     C        0.54230    0.02150    0.85480    1.000
    C165     C        0.53740    0.98720    0.82870    1.000
    H94      H        0.51510    0.96830    0.83340    1.000
    C166     C        0.57300    0.04900    0.84460    1.000
    H95      H        0.57530    0.07390    0.86040    1.000
    C167     C        0.51210    0.02910    0.89170    1.000
    C168     C        0.60010    0.04280    0.81350    1.000
    H96      H        0.62260    0.06170    0.80940    1.000
    O49      O        0.76750    0.14650    0.74620    1.000
    O50      O        0.73141    0.16371    0.69098    1.000
    C169     C        0.65476    0.03760    0.74090    1.000
    C170     C        0.68600    0.04640    0.76940    1.000
    H97      H        0.68880    0.02980    0.79370    1.000
    C171     C        0.70770    0.10480    0.72850    1.000
    C172     C        0.71260    0.07870    0.76280    1.000
    H98      H        0.73490    0.08340    0.78170    1.000
    C173     C        0.67700    0.09460    0.70100    1.000
    H99      H        0.67470    0.11040    0.67610    1.000
    C174     C        0.73790    0.14170    0.72090    1.000
    C175     C        0.64990    0.06350    0.70720    1.000
    H100     H        0.62740    0.05940    0.68830    1.000
    O51      O        0.26750    0.64650    0.24620    1.000
    O52      O        0.23141    0.66371    0.19098    1.000
    C176     C        0.15476    0.53760    0.24090    1.000
    C177     C        0.18600    0.54640    0.26940    1.000
    H101     H        0.18880    0.52980    0.29370    1.000
    C178     C        0.20770    0.60480    0.22850    1.000
    C179     C        0.21260    0.57870    0.26280    1.000
    H102     H        0.23490    0.58340    0.28170    1.000
    C180     C        0.17700    0.59460    0.20100    1.000
    H103     H        0.17470    0.61040    0.17610    1.000
    C181     C        0.23790    0.64170    0.22090    1.000
    C182     C        0.14990    0.56350    0.20720    1.000
    H104     H        0.12740    0.55940    0.18830    1.000
    O53      O        0.73250    0.85350    0.24620    1.000
    O54      O        0.76859    0.83629    0.19098    1.000
    C183     C        0.84524    0.96240    0.24090    1.000
    C184     C        0.81400    0.95360    0.26940    1.000
    H105     H        0.81120    0.97020    0.29370    1.000
    C185     C        0.79230    0.89520    0.22850    1.000
    C186     C        0.78740    0.92130    0.26280    1.000
    H106     H        0.76510    0.91660    0.28170    1.000
    C187     C        0.82300    0.90540    0.20100    1.000
    H107     H        0.82530    0.88960    0.17610    1.000
    C188     C        0.76210    0.85830    0.22090    1.000
    C189     C        0.85010    0.93650    0.20720    1.000
    H108     H        0.87260    0.94060    0.18830    1.000
    O55      O        0.23250    0.35350    0.74620    1.000
    O56      O        0.26859    0.33629    0.69098    1.000
    C190     C        0.34524    0.46240    0.74090    1.000
    C191     C        0.31400    0.45360    0.76940    1.000
    H109     H        0.31120    0.47020    0.79370    1.000
    C192     C        0.29230    0.39520    0.72850    1.000
    C193     C        0.28740    0.42130    0.76280    1.000
    H110     H        0.26510    0.41660    0.78170    1.000
    C194     C        0.32300    0.40540    0.70100    1.000
    H111     H        0.32530    0.38960    0.67610    1.000
    C195     C        0.26210    0.35830    0.72090    1.000
    C196     C        0.35010    0.43650    0.70720    1.000
    H112     H        0.37260    0.44060    0.68830    1.000
    O57      O        0.26750    0.35350    0.25380    1.000
    O58      O        0.23141    0.33629    0.30902    1.000
    C197     C        0.15476    0.46240    0.25910    1.000
    C198     C        0.18600    0.45360    0.23060    1.000
    H113     H        0.18880    0.47020    0.20630    1.000
    C199     C        0.20770    0.39520    0.27150    1.000
    C200     C        0.21260    0.42130    0.23720    1.000
    H114     H        0.23490    0.41660    0.21830    1.000
    C201     C        0.17700    0.40540    0.29900    1.000
    H115     H        0.17470    0.38960    0.32390    1.000
    C202     C        0.23790    0.35830    0.27910    1.000
    C203     C        0.14990    0.43650    0.29280    1.000
    H116     H        0.12740    0.44060    0.31170    1.000
    O59      O        0.76750    0.85350    0.75380    1.000
    O60      O        0.73141    0.83629    0.80902    1.000
    C204     C        0.65476    0.96240    0.75910    1.000
    C205     C        0.68600    0.95360    0.73060    1.000
    H117     H        0.68880    0.97020    0.70630    1.000
    C206     C        0.70770    0.89520    0.77150    1.000
    C207     C        0.71260    0.92130    0.73720    1.000
    H118     H        0.73490    0.91660    0.71830    1.000
    C208     C        0.67700    0.90540    0.79900    1.000
    H119     H        0.67470    0.88960    0.82390    1.000
    C209     C        0.73790    0.85830    0.77910    1.000
    C210     C        0.64990    0.93650    0.79280    1.000
    H120     H        0.62740    0.94060    0.81170    1.000
    O61      O        0.23250    0.64650    0.75380    1.000
    O62      O        0.26859    0.66371    0.80902    1.000
    C211     C        0.34524    0.53760    0.75910    1.000
    C212     C        0.31400    0.54640    0.73060    1.000
    H121     H        0.31120    0.52980    0.70630    1.000
    C213     C        0.29230    0.60480    0.77150    1.000
    C214     C        0.28740    0.57870    0.73720    1.000
    H122     H        0.26510    0.58340    0.71830    1.000
    C215     C        0.32300    0.59460    0.79900    1.000
    H123     H        0.32530    0.61040    0.82390    1.000
    C216     C        0.26210    0.64170    0.77910    1.000
    C217     C        0.35010    0.56350    0.79280    1.000
    H124     H        0.37260    0.55940    0.81170    1.000
    O63      O        0.73250    0.14650    0.25380    1.000
    O64      O        0.76859    0.16371    0.30902    1.000
    C218     C        0.84524    0.03760    0.25910    1.000
    C219     C        0.81400    0.04640    0.23060    1.000
    H125     H        0.81120    0.02980    0.20630    1.000
    C220     C        0.79230    0.10480    0.27150    1.000
    C221     C        0.78740    0.07870    0.23720    1.000
    H126     H        0.76510    0.08340    0.21830    1.000
    C222     C        0.82300    0.09460    0.29900    1.000
    H127     H        0.82530    0.11040    0.32390    1.000
    C223     C        0.76210    0.14170    0.27910    1.000
    C224     C        0.85010    0.06350    0.29280    1.000
    H128     H        0.87260    0.05940    0.31170    1.000
    O65      O        0.14650    0.74620    0.76750    1.000
    O66      O        0.16371    0.69098    0.73141    1.000
    C225     C        0.03760    0.74090    0.65476    1.000
    C226     C        0.04640    0.76940    0.68600    1.000
    H129     H        0.02980    0.79370    0.68880    1.000
    C227     C        0.10480    0.72850    0.70770    1.000
    C228     C        0.07870    0.76280    0.71260    1.000
    H130     H        0.08340    0.78170    0.73490    1.000
    C229     C        0.09460    0.70100    0.67700    1.000
    H131     H        0.11040    0.67610    0.67470    1.000
    C230     C        0.14170    0.72090    0.73790    1.000
    C231     C        0.06350    0.70720    0.64990    1.000
    H132     H        0.05940    0.68830    0.62740    1.000
    O67      O        0.64650    0.24620    0.26750    1.000
    O68      O        0.66371    0.19098    0.23141    1.000
    C232     C        0.53760    0.24090    0.15476    1.000
    C233     C        0.54640    0.26940    0.18600    1.000
    H133     H        0.52980    0.29370    0.18880    1.000
    C234     C        0.60480    0.22850    0.20770    1.000
    C235     C        0.57870    0.26280    0.21260    1.000
    H134     H        0.58340    0.28170    0.23490    1.000
    C236     C        0.59460    0.20100    0.17700    1.000
    H135     H        0.61040    0.17610    0.17470    1.000
    C237     C        0.64170    0.22090    0.23790    1.000
    C238     C        0.56350    0.20720    0.14990    1.000
    H136     H        0.55940    0.18830    0.12740    1.000
    O69      O        0.85350    0.24620    0.73250    1.000
    O70      O        0.83629    0.19098    0.76859    1.000
    C239     C        0.96240    0.24090    0.84524    1.000
    C240     C        0.95360    0.26940    0.81400    1.000
    H137     H        0.97020    0.29370    0.81120    1.000
    C241     C        0.89520    0.22850    0.79230    1.000
    C242     C        0.92130    0.26280    0.78740    1.000
    H138     H        0.91660    0.28170    0.76510    1.000
    C243     C        0.90540    0.20100    0.82300    1.000
    H139     H        0.88960    0.17610    0.82530    1.000
    C244     C        0.85830    0.22090    0.76210    1.000
    C245     C        0.93650    0.20720    0.85010    1.000
    H140     H        0.94060    0.18830    0.87260    1.000
    O71      O        0.35350    0.74620    0.23250    1.000
    O72      O        0.33629    0.69098    0.26859    1.000
    C246     C        0.46240    0.74090    0.34524    1.000
    C247     C        0.45360    0.76940    0.31400    1.000
    H141     H        0.47020    0.79370    0.31120    1.000
    C248     C        0.39520    0.72850    0.29230    1.000
    C249     C        0.42130    0.76280    0.28740    1.000
    H142     H        0.41660    0.78170    0.26510    1.000
    C250     C        0.40540    0.70100    0.32300    1.000
    H143     H        0.38960    0.67610    0.32530    1.000
    C251     C        0.35830    0.72090    0.26210    1.000
    C252     C        0.43650    0.70720    0.35010    1.000
    H144     H        0.44060    0.68830    0.37260    1.000
    O73      O        0.35350    0.25380    0.26750    1.000
    O74      O        0.33629    0.30902    0.23141    1.000
    C253     C        0.46240    0.25910    0.15476    1.000
    C254     C        0.45360    0.23060    0.18600    1.000
    H145     H        0.47020    0.20630    0.18880    1.000
    C255     C        0.39520    0.27150    0.20770    1.000
    C256     C        0.42130    0.23720    0.21260    1.000
    H146     H        0.41660    0.21830    0.23490    1.000
    C257     C        0.40540    0.29900    0.17700    1.000
    H147     H        0.38960    0.32390    0.17470    1.000
    C258     C        0.35830    0.27910    0.23790    1.000
    C259     C        0.43650    0.29280    0.14990    1.000
    H148     H        0.44060    0.31170    0.12740    1.000
    O75      O        0.85350    0.75380    0.76750    1.000
    O76      O        0.83629    0.80902    0.73141    1.000
    C260     C        0.96240    0.75910    0.65476    1.000
    C261     C        0.95360    0.73060    0.68600    1.000
    H149     H        0.97020    0.70630    0.68880    1.000
    C262     C        0.89520    0.77150    0.70770    1.000
    C263     C        0.92130    0.73720    0.71260    1.000
    H150     H        0.91660    0.71830    0.73490    1.000
    C264     C        0.90540    0.79900    0.67700    1.000
    H151     H        0.88960    0.82390    0.67470    1.000
    C265     C        0.85830    0.77910    0.73790    1.000
    C266     C        0.93650    0.79280    0.64990    1.000
    H152     H        0.94060    0.81170    0.62740    1.000
    O77      O        0.64650    0.75380    0.23250    1.000
    O78      O        0.66371    0.80902    0.26859    1.000
    C267     C        0.53760    0.75910    0.34524    1.000
    C268     C        0.54640    0.73060    0.31400    1.000
    H153     H        0.52980    0.70630    0.31120    1.000
    C269     C        0.60480    0.77150    0.29230    1.000
    C270     C        0.57870    0.73720    0.28740    1.000
    H154     H        0.58340    0.71830    0.26510    1.000
    C271     C        0.59460    0.79900    0.32300    1.000
    H155     H        0.61040    0.82390    0.32530    1.000
    C272     C        0.64170    0.77910    0.26210    1.000
    C273     C        0.56350    0.79280    0.35010    1.000
    H156     H        0.55940    0.81170    0.37260    1.000
    O79      O        0.14650    0.25380    0.73250    1.000
    O80      O        0.16371    0.30902    0.76859    1.000
    C274     C        0.03760    0.25910    0.84524    1.000
    C275     C        0.04640    0.23060    0.81400    1.000
    H157     H        0.02980    0.20630    0.81120    1.000
    C276     C        0.10480    0.27150    0.79230    1.000
    C277     C        0.07870    0.23720    0.78740    1.000
    H158     H        0.08340    0.21830    0.76510    1.000
    C278     C        0.09460    0.29900    0.82300    1.000
    H159     H        0.11040    0.32390    0.82530    1.000
    C279     C        0.14170    0.27910    0.76210    1.000
    C280     C        0.06350    0.29280    0.85010    1.000
    H160     H        0.05940    0.31170    0.87260    1.000
    O81      O        0.74620    0.76750    0.14650    1.000
    O82      O        0.69098    0.73141    0.16371    1.000
    C281     C        0.74090    0.65476    0.03760    1.000
    C282     C        0.76940    0.68600    0.04640    1.000
    H161     H        0.79370    0.68880    0.02980    1.000
    C283     C        0.72850    0.70770    0.10480    1.000
    C284     C        0.76280    0.71260    0.07870    1.000
    H162     H        0.78170    0.73490    0.08340    1.000
    C285     C        0.70100    0.67700    0.09460    1.000
    H163     H        0.67610    0.67470    0.11040    1.000
    C286     C        0.72090    0.73790    0.14170    1.000
    C287     C        0.70720    0.64990    0.06350    1.000
    H164     H        0.68830    0.62740    0.05940    1.000
    O83      O        0.24620    0.26750    0.64650    1.000
    O84      O        0.19098    0.23141    0.66371    1.000
    C288     C        0.24090    0.15476    0.53760    1.000
    C289     C        0.26940    0.18600    0.54640    1.000
    H165     H        0.29370    0.18880    0.52980    1.000
    C290     C        0.22850    0.20770    0.60480    1.000
    C291     C        0.26280    0.21260    0.57870    1.000
    H166     H        0.28170    0.23490    0.58340    1.000
    C292     C        0.20100    0.17700    0.59460    1.000
    H167     H        0.17610    0.17470    0.61040    1.000
    C293     C        0.22090    0.23790    0.64170    1.000
    C294     C        0.20720    0.14990    0.56350    1.000
    H168     H        0.18830    0.12740    0.55940    1.000
    O85      O        0.24620    0.73250    0.85350    1.000
    O86      O        0.19098    0.76859    0.83629    1.000
    C295     C        0.24090    0.84524    0.96240    1.000
    C296     C        0.26940    0.81400    0.95360    1.000
    H169     H        0.29370    0.81120    0.97020    1.000
    C297     C        0.22850    0.79230    0.89520    1.000
    C298     C        0.26280    0.78740    0.92130    1.000
    H170     H        0.28170    0.76510    0.91660    1.000
    C299     C        0.20100    0.82300    0.90540    1.000
    H171     H        0.17610    0.82530    0.88960    1.000
    C300     C        0.22090    0.76210    0.85830    1.000
    C301     C        0.20720    0.85010    0.93650    1.000
    H172     H        0.18830    0.87260    0.94060    1.000
    O87      O        0.74620    0.23250    0.35350    1.000
    O88      O        0.69098    0.26859    0.33629    1.000
    C302     C        0.74090    0.34524    0.46240    1.000
    C303     C        0.76940    0.31400    0.45360    1.000
    H173     H        0.79370    0.31120    0.47020    1.000
    C304     C        0.72850    0.29230    0.39520    1.000
    C305     C        0.76280    0.28740    0.42130    1.000
    H174     H        0.78170    0.26510    0.41660    1.000
    C306     C        0.70100    0.32300    0.40540    1.000
    H175     H        0.67610    0.32530    0.38960    1.000
    C307     C        0.72090    0.26210    0.35830    1.000
    C308     C        0.70720    0.35010    0.43650    1.000
    H176     H        0.68830    0.37260    0.44060    1.000
    O89      O        0.25380    0.26750    0.35350    1.000
    O90      O        0.30902    0.23141    0.33629    1.000
    C309     C        0.25910    0.15476    0.46240    1.000
    C310     C        0.23060    0.18600    0.45360    1.000
    H177     H        0.20630    0.18880    0.47020    1.000
    C311     C        0.27150    0.20770    0.39520    1.000
    C312     C        0.23720    0.21260    0.42130    1.000
    H178     H        0.21830    0.23490    0.41660    1.000
    C313     C        0.29900    0.17700    0.40540    1.000
    H179     H        0.32390    0.17470    0.38960    1.000
    C314     C        0.27910    0.23790    0.35830    1.000
    C315     C        0.29280    0.14990    0.43650    1.000
    H180     H        0.31170    0.12740    0.44060    1.000
    O91      O        0.75380    0.76750    0.85350    1.000
    O92      O        0.80902    0.73141    0.83629    1.000
    C316     C        0.75910    0.65476    0.96240    1.000
    C317     C        0.73060    0.68600    0.95360    1.000
    H181     H        0.70630    0.68880    0.97020    1.000
    C318     C        0.77150    0.70770    0.89520    1.000
    C319     C        0.73720    0.71260    0.92130    1.000
    H182     H        0.71830    0.73490    0.91660    1.000
    C320     C        0.79900    0.67700    0.90540    1.000
    H183     H        0.82390    0.67470    0.88960    1.000
    C321     C        0.77910    0.73790    0.85830    1.000
    C322     C        0.79280    0.64990    0.93650    1.000
    H184     H        0.81170    0.62740    0.94060    1.000
    O93      O        0.75380    0.23250    0.64650    1.000
    O94      O        0.80902    0.26859    0.66371    1.000
    C323     C        0.75910    0.34524    0.53760    1.000
    C324     C        0.73060    0.31400    0.54640    1.000
    H185     H        0.70630    0.31120    0.52980    1.000
    C325     C        0.77150    0.29230    0.60480    1.000
    C326     C        0.73720    0.28740    0.57870    1.000
    H186     H        0.71830    0.26510    0.58340    1.000
    C327     C        0.79900    0.32300    0.59460    1.000
    H187     H        0.82390    0.32530    0.61040    1.000
    C328     C        0.77910    0.26210    0.64170    1.000
    C329     C        0.79280    0.35010    0.56350    1.000
    H188     H        0.81170    0.37260    0.55940    1.000
    O95      O        0.25380    0.73250    0.14650    1.000
    O96      O        0.30902    0.76859    0.16371    1.000
    C330     C        0.25910    0.84524    0.03760    1.000
    C331     C        0.23060    0.81400    0.04640    1.000
    H189     H        0.20630    0.81120    0.02980    1.000
    C332     C        0.27150    0.79230    0.10480    1.000
    C333     C        0.23720    0.78740    0.07870    1.000
    H190     H        0.21830    0.76510    0.08340    1.000
    C334     C        0.29900    0.82300    0.09460    1.000
    H191     H        0.32390    0.82530    0.11040    1.000
    C335     C        0.27910    0.76210    0.14170    1.000
    C336     C        0.29280    0.85010    0.06350    1.000
    H192     H        0.31170    0.87260    0.05940    1.000
    U1       U        0.95755    0.54245    0.45755    1.000
    U2       U        0.45755    0.04245    0.95755    1.000
    U3       U        0.54245    0.45755    0.95755    1.000
    U4       U        0.04245    0.95755    0.45755    1.000
    U5       U        0.04245    0.04245    0.04245    1.000
    U6       U        0.54245    0.54245    0.54245    1.000
    U7       U        0.45755    0.95755    0.54245    1.000
    U8       U        0.95755    0.45755    0.04245    1.000
    U9       U        0.79245    0.20755    0.70755    1.000
    U10      U        0.29245    0.70755    0.20755    1.000
    U11      U        0.70755    0.79245    0.20755    1.000
    U12      U        0.20755    0.29245    0.70755    1.000
    U13      U        0.29245    0.29245    0.29245    1.000
    U14      U        0.79245    0.79245    0.79245    1.000
    U15      U        0.20755    0.70755    0.79245    1.000
    U16      U        0.70755    0.20755    0.29245    1.000
    C337     C        0.75000    0.37500    0.50000    1.000
    C338     C        0.75000    0.62500    0.00000    1.000
    C339     C        0.25000    0.87500    0.00000    1.000
    C340     C        0.25000    0.12500    0.50000    1.000
    C341     C        0.50000    0.75000    0.37500    1.000
    C342     C        0.00000    0.75000    0.62500    1.000
    C343     C        0.00000    0.25000    0.87500    1.000
    C344     C        0.50000    0.25000    0.12500    1.000
    C345     C        0.37500    0.50000    0.75000    1.000
    C346     C        0.62500    0.00000    0.75000    1.000
    C347     C        0.87500    0.00000    0.25000    1.000
    C348     C        0.12500    0.50000    0.25000    1.000
