# CIF file generated by openbabel 3.1.0, see https://openbabel.org
data_I
_chemical_name_common 'image0'
_cell_length_a 19.561
_cell_length_b 15.255
_cell_length_c 23.404
_cell_angle_alpha 90
_cell_angle_beta 90
_cell_angle_gamma 90
_space_group_name_H-M_alt 'P 1'
_space_group_name_Hall 'P 1'
loop_
    _symmetry_equiv_pos_as_xyz
    x,y,z
loop_
    _atom_site_label
    _atom_site_type_symbol
    _atom_site_fract_x
    _atom_site_fract_y
    _atom_site_fract_z
    _atom_site_occupancy
    O1       O        0.05610    0.35070    0.76770    1.000
    C1       C        0.06330    0.66770    0.98610    1.000
    C2       C        0.05710    0.55400    0.88710    1.000
    C3       C        0.05720    0.48670    0.84740    1.000
    O2       O        0.32760    0.78040    0.19330    1.000
    O3       O        0.36110    0.81900    0.13970    1.000
    H1       H        0.06340    0.61450    0.01050    1.000
    H2       H        0.10540    0.66190    0.96300    1.000
    H3       H        0.10150    0.57500    0.90120    1.000
    H4       H        0.10250    0.46470    0.83410    1.000
    O4       O        0.55610    0.85070    0.26770    1.000
    C4       C        0.56330    0.16770    0.48610    1.000
    C5       C        0.55710    0.05400    0.38710    1.000
    C6       C        0.55720    0.98670    0.34740    1.000
    O5       O        0.82760    0.28040    0.69330    1.000
    O6       O        0.86110    0.31900    0.63970    1.000
    H5       H        0.56340    0.11450    0.51050    1.000
    H6       H        0.60540    0.16190    0.46300    1.000
    H7       H        0.60150    0.07500    0.40120    1.000
    H8       H        0.60250    0.96470    0.33410    1.000
    O7       O        0.94390    0.14930    0.76770    1.000
    C7       C        0.93670    0.83230    0.98610    1.000
    C8       C        0.94290    0.94600    0.88710    1.000
    C9       C        0.94280    0.01330    0.84740    1.000
    O8       O        0.67240    0.71960    0.19330    1.000
    O9       O        0.63890    0.68100    0.13970    1.000
    H9       H        0.93660    0.88550    0.01050    1.000
    H10      H        0.89460    0.83810    0.96300    1.000
    H11      H        0.89850    0.92500    0.90120    1.000
    H12      H        0.89750    0.03530    0.83410    1.000
    O10      O        0.44390    0.64930    0.26770    1.000
    C10      C        0.43670    0.33230    0.48610    1.000
    C11      C        0.44290    0.44600    0.38710    1.000
    C12      C        0.44280    0.51330    0.34740    1.000
    O11      O        0.17240    0.21960    0.69330    1.000
    O12      O        0.13890    0.18100    0.63970    1.000
    H13      H        0.43660    0.38550    0.51050    1.000
    H14      H        0.39460    0.33810    0.46300    1.000
    H15      H        0.39850    0.42500    0.40120    1.000
    H16      H        0.39750    0.53530    0.33410    1.000
    O13      O        0.05610    0.14930    0.76770    1.000
    C13      C        0.06330    0.83230    0.98610    1.000
    C14      C        0.05710    0.94600    0.88710    1.000
    C15      C        0.05720    0.01330    0.84740    1.000
    O14      O        0.32760    0.71960    0.19330    1.000
    O15      O        0.36110    0.68100    0.13970    1.000
    H17      H        0.06340    0.88550    0.01050    1.000
    H18      H        0.10540    0.83810    0.96300    1.000
    H19      H        0.10150    0.92500    0.90120    1.000
    H20      H        0.10250    0.03530    0.83410    1.000
    O16      O        0.55610    0.64930    0.26770    1.000
    C16      C        0.56330    0.33230    0.48610    1.000
    C17      C        0.55710    0.44600    0.38710    1.000
    C18      C        0.55720    0.51330    0.34740    1.000
    O17      O        0.82760    0.21960    0.69330    1.000
    O18      O        0.86110    0.18100    0.63970    1.000
    H21      H        0.56340    0.38550    0.51050    1.000
    H22      H        0.60540    0.33810    0.46300    1.000
    H23      H        0.60150    0.42500    0.40120    1.000
    H24      H        0.60250    0.53530    0.33410    1.000
    O19      O        0.94390    0.35070    0.76770    1.000
    C19      C        0.93670    0.66770    0.98610    1.000
    C20      C        0.94290    0.55400    0.88710    1.000
    C21      C        0.94280    0.48670    0.84740    1.000
    O20      O        0.67240    0.78040    0.19330    1.000
    O21      O        0.63890    0.81900    0.13970    1.000
    H25      H        0.93660    0.61450    0.01050    1.000
    H26      H        0.89460    0.66190    0.96300    1.000
    H27      H        0.89850    0.57500    0.90120    1.000
    H28      H        0.89750    0.46470    0.83410    1.000
    O22      O        0.44390    0.85070    0.26770    1.000
    C22      C        0.43670    0.16770    0.48610    1.000
    C23      C        0.44290    0.05400    0.38710    1.000
    C24      C        0.44280    0.98670    0.34740    1.000
    O23      O        0.17240    0.28040    0.69330    1.000
    O24      O        0.13890    0.31900    0.63970    1.000
    H29      H        0.43660    0.11450    0.51050    1.000
    H30      H        0.39460    0.16190    0.46300    1.000
    H31      H        0.39850    0.07500    0.40120    1.000
    H32      H        0.39750    0.96470    0.33410    1.000
    Zn1      Zn       0.07650    0.25000    0.71620    1.000
    Zn2      Zn       0.57650    0.75000    0.21620    1.000
    Zn3      Zn       0.92350    0.25000    0.71620    1.000
    Zn4      Zn       0.42350    0.75000    0.21620    1.000
    O25      O        0.00000    0.25000    0.66500    1.000
    O26      O        0.50000    0.75000    0.16500    1.000
    C25      C        0.06530    0.75000    0.02250    1.000
    C26      C        0.12920    0.75000    0.06080    1.000
    C27      C        0.18950    0.75000    0.03310    1.000
    C28      C        0.24930    0.75000    0.06160    1.000
    C29      C        0.25260    0.75000    0.11900    1.000
    C30      C        0.19420    0.75000    0.14900    1.000
    C31      C        0.13640    0.75000    0.11790    1.000
    C32      C        0.32700    0.75000    0.14410    1.000
    H33      H        0.96010    0.75000    0.88380    1.000
    H34      H        0.19330    0.75000    0.99100    1.000
    H35      H        0.29320    0.75000    0.04360    1.000
    H36      H        0.18880    0.75000    0.19220    1.000
    H37      H        0.09140    0.75000    0.13740    1.000
    C33      C        0.56530    0.25000    0.52250    1.000
    C34      C        0.62920    0.25000    0.56080    1.000
    C35      C        0.68950    0.25000    0.53310    1.000
    C36      C        0.74930    0.25000    0.56160    1.000
    C37      C        0.75260    0.25000    0.61900    1.000
    C38      C        0.69420    0.25000    0.64900    1.000
    C39      C        0.63640    0.25000    0.61790    1.000
    C40      C        0.82700    0.25000    0.64410    1.000
    H38      H        0.46010    0.25000    0.38380    1.000
    H39      H        0.69330    0.25000    0.49100    1.000
    H40      H        0.79320    0.25000    0.54360    1.000
    H41      H        0.68880    0.25000    0.69220    1.000
    H42      H        0.59140    0.25000    0.63740    1.000
    C41      C        0.93470    0.75000    0.02250    1.000
    C42      C        0.87080    0.75000    0.06080    1.000
    C43      C        0.81050    0.75000    0.03310    1.000
    C44      C        0.75070    0.75000    0.06160    1.000
    C45      C        0.74740    0.75000    0.11900    1.000
    C46      C        0.80580    0.75000    0.14900    1.000
    C47      C        0.86360    0.75000    0.11790    1.000
    C48      C        0.67300    0.75000    0.14410    1.000
    H43      H        0.03990    0.75000    0.88380    1.000
    H44      H        0.80670    0.75000    0.99100    1.000
    H45      H        0.70680    0.75000    0.04360    1.000
    H46      H        0.81120    0.75000    0.19220    1.000
    H47      H        0.90860    0.75000    0.13740    1.000
    C49      C        0.43470    0.25000    0.52250    1.000
    C50      C        0.37080    0.25000    0.56080    1.000
    C51      C        0.31050    0.25000    0.53310    1.000
    C52      C        0.25070    0.25000    0.56160    1.000
    C53      C        0.24740    0.25000    0.61900    1.000
    C54      C        0.30580    0.25000    0.64900    1.000
    C55      C        0.36360    0.25000    0.61790    1.000
    C56      C        0.17300    0.25000    0.64410    1.000
    H48      H        0.53990    0.25000    0.38380    1.000
    H49      H        0.30670    0.25000    0.49100    1.000
    H50      H        0.20680    0.25000    0.54360    1.000
    H51      H        0.31120    0.25000    0.69220    1.000
    H52      H        0.40860    0.25000    0.63740    1.000
    C57      C        0.00000    0.66940    0.94790    1.000
    C58      C        0.00000    0.59140    0.90880    1.000
    C59      C        0.00000    0.44980    0.82590    1.000
    C60      C        0.00000    0.37830    0.78300    1.000
    H53      H        0.00000    0.80110    0.08650    1.000
    C61      C        0.50000    0.16940    0.44790    1.000
    C62      C        0.50000    0.09140    0.40880    1.000
    C63      C        0.50000    0.94980    0.32590    1.000
    C64      C        0.50000    0.87830    0.28300    1.000
    H54      H        0.50000    0.30110    0.58650    1.000
    C65      C        0.00000    0.83060    0.94790    1.000
    C66      C        0.00000    0.90860    0.90880    1.000
    C67      C        0.00000    0.05020    0.82590    1.000
    C68      C        0.00000    0.12170    0.78300    1.000
    H55      H        0.00000    0.69890    0.08650    1.000
    C69      C        0.50000    0.33060    0.44790    1.000
    C70      C        0.50000    0.40860    0.40880    1.000
    C71      C        0.50000    0.55020    0.32590    1.000
    C72      C        0.50000    0.62170    0.28300    1.000
    H56      H        0.50000    0.19890    0.58650    1.000
    C73      C        0.00000    0.75000    0.90920    1.000
    C74      C        0.00000    0.75000    0.05920    1.000
    C75      C        0.50000    0.25000    0.40920    1.000
    C76      C        0.50000    0.25000    0.55920    1.000
    O27      O        0.94390    0.85070    0.23230    1.000
    C77      C        0.93670    0.16770    0.01390    1.000
    C78      C        0.94290    0.05400    0.11290    1.000
    C79      C        0.94280    0.98670    0.15260    1.000
    O28      O        0.67240    0.28040    0.80670    1.000
    O29      O        0.63890    0.31900    0.86030    1.000
    H57      H        0.93660    0.11450    0.98950    1.000
    H58      H        0.89460    0.16190    0.03700    1.000
    H59      H        0.89850    0.07500    0.09880    1.000
    H60      H        0.89750    0.96470    0.16590    1.000
    O30      O        0.44390    0.35070    0.73230    1.000
    C80      C        0.43670    0.66770    0.51390    1.000
    C81      C        0.44290    0.55400    0.61290    1.000
    C82      C        0.44280    0.48670    0.65260    1.000
    O31      O        0.17240    0.78040    0.30670    1.000
    O32      O        0.13890    0.81900    0.36030    1.000
    H61      H        0.43660    0.61450    0.48950    1.000
    H62      H        0.39460    0.66190    0.53700    1.000
    H63      H        0.39850    0.57500    0.59880    1.000
    H64      H        0.39750    0.46470    0.66590    1.000
    O33      O        0.05610    0.64930    0.23230    1.000
    C83      C        0.06330    0.33230    0.01390    1.000
    C84      C        0.05710    0.44600    0.11290    1.000
    C85      C        0.05720    0.51330    0.15260    1.000
    O34      O        0.32760    0.21960    0.80670    1.000
    O35      O        0.36110    0.18100    0.86030    1.000
    H65      H        0.06340    0.38550    0.98950    1.000
    H66      H        0.10540    0.33810    0.03700    1.000
    H67      H        0.10150    0.42500    0.09880    1.000
    H68      H        0.10250    0.53530    0.16590    1.000
    O36      O        0.55610    0.14930    0.73230    1.000
    C86      C        0.56330    0.83230    0.51390    1.000
    C87      C        0.55710    0.94600    0.61290    1.000
    C88      C        0.55720    0.01330    0.65260    1.000
    O37      O        0.82760    0.71960    0.30670    1.000
    O38      O        0.86110    0.68100    0.36030    1.000
    H69      H        0.56340    0.88550    0.48950    1.000
    H70      H        0.60540    0.83810    0.53700    1.000
    H71      H        0.60150    0.92500    0.59880    1.000
    H72      H        0.60250    0.03530    0.66590    1.000
    O39      O        0.94390    0.64930    0.23230    1.000
    C89      C        0.93670    0.33230    0.01390    1.000
    C90      C        0.94290    0.44600    0.11290    1.000
    C91      C        0.94280    0.51330    0.15260    1.000
    O40      O        0.67240    0.21960    0.80670    1.000
    O41      O        0.63890    0.18100    0.86030    1.000
    H73      H        0.93660    0.38550    0.98950    1.000
    H74      H        0.89460    0.33810    0.03700    1.000
    H75      H        0.89850    0.42500    0.09880    1.000
    H76      H        0.89750    0.53530    0.16590    1.000
    O42      O        0.44390    0.14930    0.73230    1.000
    C92      C        0.43670    0.83230    0.51390    1.000
    C93      C        0.44290    0.94600    0.61290    1.000
    C94      C        0.44280    0.01330    0.65260    1.000
    O43      O        0.17240    0.71960    0.30670    1.000
    O44      O        0.13890    0.68100    0.36030    1.000
    H77      H        0.43660    0.88550    0.48950    1.000
    H78      H        0.39460    0.83810    0.53700    1.000
    H79      H        0.39850    0.92500    0.59880    1.000
    H80      H        0.39750    0.03530    0.66590    1.000
    O45      O        0.05610    0.85070    0.23230    1.000
    C95      C        0.06330    0.16770    0.01390    1.000
    C96      C        0.05710    0.05400    0.11290    1.000
    C97      C        0.05720    0.98670    0.15260    1.000
    O46      O        0.32760    0.28040    0.80670    1.000
    O47      O        0.36110    0.31900    0.86030    1.000
    H81      H        0.06340    0.11450    0.98950    1.000
    H82      H        0.10540    0.16190    0.03700    1.000
    H83      H        0.10150    0.07500    0.09880    1.000
    H84      H        0.10250    0.96470    0.16590    1.000
    O48      O        0.55610    0.35070    0.73230    1.000
    C98      C        0.56330    0.66770    0.51390    1.000
    C99      C        0.55710    0.55400    0.61290    1.000
    C100     C        0.55720    0.48670    0.65260    1.000
    O49      O        0.82760    0.78040    0.30670    1.000
    O50      O        0.86110    0.81900    0.36030    1.000
    H85      H        0.56340    0.61450    0.48950    1.000
    H86      H        0.60540    0.66190    0.53700    1.000
    H87      H        0.60150    0.57500    0.59880    1.000
    H88      H        0.60250    0.46470    0.66590    1.000
    Zn5      Zn       0.92350    0.75000    0.28380    1.000
    Zn6      Zn       0.42350    0.25000    0.78380    1.000
    Zn7      Zn       0.07650    0.75000    0.28380    1.000
    Zn8      Zn       0.57650    0.25000    0.78380    1.000
    O51      O        0.00000    0.75000    0.33500    1.000
    O52      O        0.50000    0.25000    0.83500    1.000
    C101     C        0.93470    0.25000    0.97750    1.000
    C102     C        0.87080    0.25000    0.93920    1.000
    C103     C        0.81050    0.25000    0.96690    1.000
    C104     C        0.75070    0.25000    0.93840    1.000
    C105     C        0.74740    0.25000    0.88100    1.000
    C106     C        0.80580    0.25000    0.85100    1.000
    C107     C        0.86360    0.25000    0.88210    1.000
    C108     C        0.67300    0.25000    0.85590    1.000
    H89      H        0.03990    0.25000    0.11620    1.000
    H90      H        0.80670    0.25000    0.00900    1.000
    H91      H        0.70680    0.25000    0.95640    1.000
    H92      H        0.81120    0.25000    0.80780    1.000
    H93      H        0.90860    0.25000    0.86260    1.000
    C109     C        0.43470    0.75000    0.47750    1.000
    C110     C        0.37080    0.75000    0.43920    1.000
    C111     C        0.31050    0.75000    0.46690    1.000
    C112     C        0.25070    0.75000    0.43840    1.000
    C113     C        0.24740    0.75000    0.38100    1.000
    C114     C        0.30580    0.75000    0.35100    1.000
    C115     C        0.36360    0.75000    0.38210    1.000
    C116     C        0.17300    0.75000    0.35590    1.000
    H94      H        0.53990    0.75000    0.61620    1.000
    H95      H        0.30670    0.75000    0.50900    1.000
    H96      H        0.20680    0.75000    0.45640    1.000
    H97      H        0.31120    0.75000    0.30780    1.000
    H98      H        0.40860    0.75000    0.36260    1.000
    C117     C        0.06530    0.25000    0.97750    1.000
    C118     C        0.12920    0.25000    0.93920    1.000
    C119     C        0.18950    0.25000    0.96690    1.000
    C120     C        0.24930    0.25000    0.93840    1.000
    C121     C        0.25260    0.25000    0.88100    1.000
    C122     C        0.19420    0.25000    0.85100    1.000
    C123     C        0.13640    0.25000    0.88210    1.000
    C124     C        0.32700    0.25000    0.85590    1.000
    H99      H        0.96010    0.25000    0.11620    1.000
    H100     H        0.19330    0.25000    0.00900    1.000
    H101     H        0.29320    0.25000    0.95640    1.000
    H102     H        0.18880    0.25000    0.80780    1.000
    H103     H        0.09140    0.25000    0.86260    1.000
    C125     C        0.56530    0.75000    0.47750    1.000
    C126     C        0.62920    0.75000    0.43920    1.000
    C127     C        0.68950    0.75000    0.46690    1.000
    C128     C        0.74930    0.75000    0.43840    1.000
    C129     C        0.75260    0.75000    0.38100    1.000
    C130     C        0.69420    0.75000    0.35100    1.000
    C131     C        0.63640    0.75000    0.38210    1.000
    C132     C        0.82700    0.75000    0.35590    1.000
    H104     H        0.46010    0.75000    0.61620    1.000
    H105     H        0.69330    0.75000    0.50900    1.000
    H106     H        0.79320    0.75000    0.45640    1.000
    H107     H        0.68880    0.75000    0.30780    1.000
    H108     H        0.59140    0.75000    0.36260    1.000
    C133     C        0.00000    0.16940    0.05210    1.000
    C134     C        0.00000    0.09140    0.09120    1.000
    C135     C        0.00000    0.94980    0.17410    1.000
    C136     C        0.00000    0.87830    0.21700    1.000
    H109     H        0.00000    0.30110    0.91350    1.000
    C137     C        0.50000    0.66940    0.55210    1.000
    C138     C        0.50000    0.59140    0.59120    1.000
    C139     C        0.50000    0.44980    0.67410    1.000
    C140     C        0.50000    0.37830    0.71700    1.000
    H110     H        0.50000    0.80110    0.41350    1.000
    C141     C        0.00000    0.33060    0.05210    1.000
    C142     C        0.00000    0.40860    0.09120    1.000
    C143     C        0.00000    0.55020    0.17410    1.000
    C144     C        0.00000    0.62170    0.21700    1.000
    H111     H        0.00000    0.19890    0.91350    1.000
    C145     C        0.50000    0.83060    0.55210    1.000
    C146     C        0.50000    0.90860    0.59120    1.000
    C147     C        0.50000    0.05020    0.67410    1.000
    C148     C        0.50000    0.12170    0.71700    1.000
    H112     H        0.50000    0.69890    0.41350    1.000
    C149     C        0.00000    0.25000    0.09080    1.000
    C150     C        0.00000    0.25000    0.94080    1.000
    C151     C        0.50000    0.75000    0.59080    1.000
    C152     C        0.50000    0.75000    0.44080    1.000
