# CIF file generated by openbabel 3.1.0, see https://openbabel.org
data_I
_chemical_name_common 'ja507947d_si_001'
_cell_length_a 32.6205
_cell_length_b 32.6205
_cell_length_c 32.6205
_cell_angle_alpha 90
_cell_angle_beta 90
_cell_angle_gamma 90
_space_group_name_H-M_alt 'P 1'
_space_group_name_Hall 'P 1'
loop_
    _symmetry_equiv_pos_as_xyz
    x,y,z
loop_
    _atom_site_label
    _atom_site_type_symbol
    _atom_site_fract_x
    _atom_site_fract_y
    _atom_site_fract_z
    _atom_site_occupancy
    O1       O        0.10460    0.05413    0.99937    1.000
    O2       O        0.89361    0.05439    0.00215    1.000
    O3       O        0.00057    0.10414    0.94496    1.000
    O4       O        0.99762    0.10435    0.05610    1.000
    O5       O        0.99744    0.05450    0.10617    1.000
    O6       O        0.00057    0.05414    0.89515    1.000
    O7       O        0.94362    0.10429    0.00200    1.000
    O8       O        0.05467    0.10413    0.99914    1.000
    Zr9      Zr       0.99911    0.07087    0.00062    1.000
    O10      O        0.96183    0.03608    0.03791    1.000
    O11      O        0.03632    0.03580    0.96357    1.000
    X12      C        0.09264    0.09212    0.99850    1.000
    X13      C        0.90563    0.09237    0.00281    1.000
    X14      C        0.00127    0.09225    0.90690    1.000
    X15      C        0.99677    0.09246    0.09411    1.000
    H16      H        0.94459    0.05322    0.94611    1.000
    O17      O        0.96207    0.03573    0.96365    1.000
    H18      H        0.05354    0.05330    0.05528    1.000
    O19      O        0.03605    0.03579    0.03779    1.000
    O20      O        0.89358    0.94335    0.99930    1.000
    O21      O        0.10453    0.94302    0.00240    1.000
    O22      O        0.94362    0.99704    0.89531    1.000
    O23      O        0.94328    0.00035    0.10631    1.000
    O24      O        0.05439    0.99741    0.10635    1.000
    O25      O        0.05470    0.00002    0.89537    1.000
    O26      O        0.99760    0.89313    0.94538    1.000
    O27      O        0.00043    0.89334    0.05652    1.000
    O28      O        0.99767    0.94294    0.89537    1.000
    O29      O        0.00034    0.94341    0.10638    1.000
    O30      O        0.89365    0.99723    0.94526    1.000
    O31      O        0.10458    0.00002    0.94540    1.000
    O32      O        0.10443    0.99720    0.05646    1.000
    O33      O        0.89345    0.00031    0.05635    1.000
    O34      O        0.94348    0.89332    0.99938    1.000
    O35      O        0.05460    0.89316    0.00243    1.000
    Zr36     Zr       0.92693    0.99883    0.00080    1.000
    Zr37     Zr       0.07118    0.99862    0.00088    1.000
    Zr38     Zr       0.99913    0.99860    0.92864    1.000
    Zr39     Zr       0.99890    0.99888    0.07295    1.000
    Zr40     Zr       0.99905    0.92658    0.00090    1.000
    O41      O        0.03615    0.96158    0.03811    1.000
    O42      O        0.96190    0.96154    0.96369    1.000
    X43      C        0.90552    0.90536    0.99856    1.000
    X44      C        0.09269    0.90494    0.00314    1.000
    X45      C        0.90565    0.99634    0.90729    1.000
    X46      C        0.90521    0.00104    0.09445    1.000
    X47      C        0.09239    0.99655    0.09442    1.000
    X48      C        0.09266    0.00076    0.90741    1.000
    X49      C        0.99691    0.90488    0.90728    1.000
    X50      C        0.00112    0.90540    0.09449    1.000
    H51      H        0.05363    0.94402    0.94637    1.000
    O52      O        0.03613    0.96157    0.96382    1.000
    H53      H        0.94441    0.94432    0.05539    1.000
    O54      O        0.96195    0.96177    0.03788    1.000
    O55      O        0.60426    0.55488    0.99924    1.000
    O56      O        0.39325    0.55471    0.00204    1.000
    O57      O        0.50021    0.60459    0.94483    1.000
    O58      O        0.49714    0.60482    0.05593    1.000
    O59      O        0.49720    0.55501    0.10606    1.000
    O60      O        0.50038    0.55454    0.89510    1.000
    O61      O        0.44313    0.60474    0.00185    1.000
    O62      O        0.55421    0.60476    0.99899    1.000
    Zr63     Zr       0.49873    0.57138    0.00051    1.000
    O64      O        0.46163    0.53648    0.03786    1.000
    O65      O        0.53607    0.53637    0.96353    1.000
    X66      C        0.59220    0.59283    0.99833    1.000
    X67      C        0.40515    0.59273    0.00264    1.000
    X68      C        0.50102    0.59265    0.90679    1.000
    X69      C        0.49637    0.59293    0.09394    1.000
    H70      H        0.44429    0.55358    0.94601    1.000
    O71      O        0.46179    0.53614    0.96357    1.000
    H72      H        0.55327    0.55400    0.05520    1.000
    O73      O        0.53581    0.53642    0.03774    1.000
    O74      O        0.39349    0.44361    0.99939    1.000
    O75      O        0.60447    0.44384    0.00251    1.000
    O76      O        0.44344    0.49738    0.89527    1.000
    O77      O        0.44326    0.50084    0.10631    1.000
    O78      O        0.55439    0.49820    0.10643    1.000
    O79      O        0.55459    0.50052    0.89537    1.000
    O80      O        0.49760    0.39362    0.94554    1.000
    O81      O        0.50045    0.39387    0.05659    1.000
    O82      O        0.49760    0.44343    0.89542    1.000
    O83      O        0.50038    0.44393    0.10644    1.000
    O84      O        0.39348    0.49746    0.94524    1.000
    O85      O        0.60443    0.50067    0.94534    1.000
    O86      O        0.60442    0.49813    0.05654    1.000
    O87      O        0.39334    0.50072    0.05631    1.000
    O88      O        0.44350    0.39370    0.99953    1.000
    O89      O        0.55457    0.39382    0.00256    1.000
    Zr90     Zr       0.42674    0.49919    0.00078    1.000
    Zr91     Zr       0.57105    0.49932    0.00089    1.000
    Zr92     Zr       0.49897    0.49907    0.92864    1.000
    Zr93     Zr       0.49885    0.49940    0.07296    1.000
    Zr94     Zr       0.49900    0.42711    0.00099    1.000
    O95      O        0.53613    0.46217    0.03815    1.000
    O96      O        0.46181    0.46196    0.96371    1.000
    X97      C        0.40551    0.40564    0.99871    1.000
    X98      C        0.59254    0.40584    0.00331    1.000
    X99      C        0.40546    0.49660    0.90727    1.000
    X100     C        0.40527    0.50152    0.09432    1.000
    X101     C        0.59242    0.49751    0.09454    1.000
    X102     C        0.59265    0.50130    0.90725    1.000
    X103     C        0.49688    0.40547    0.90751    1.000
    X104     C        0.50117    0.40592    0.09455    1.000
    H105     H        0.55357    0.44464    0.94644    1.000
    O106     O        0.53603    0.46216    0.96389    1.000
    H107     H        0.44438    0.44476    0.05545    1.000
    O108     O        0.46186    0.46225    0.03792    1.000
    O109     O        0.10365    0.55425    0.50000    1.000
    O110     O        0.89266    0.55467    0.50306    1.000
    O111     O        0.99968    0.60451    0.44620    1.000
    O112     O        0.99683    0.60431    0.55731    1.000
    O113     O        0.99679    0.55424    0.60717    1.000
    O114     O        0.99957    0.55467    0.39611    1.000
    O115     O        0.94267    0.60447    0.50320    1.000
    O116     O        0.05376    0.60430    0.50020    1.000
    Zr117    Zr       0.99817    0.57104    0.50167    1.000
    O118     O        0.96094    0.53607    0.53879    1.000
    O119     O        0.03525    0.53609    0.46434    1.000
    X120     C        0.09173    0.59226    0.49935    1.000
    X121     C        0.90458    0.59271    0.50386    1.000
    X122     C        0.00040    0.59262    0.40818    1.000
    X123     C        0.99612    0.59228    0.59529    1.000
    H124     H        0.94356    0.55367    0.44706    1.000
    O125     O        0.96105    0.53611    0.46451    1.000
    H126     H        0.05272    0.55321    0.55609    1.000
    O127     O        0.03518    0.53577    0.53857    1.000
    O128     O        0.89256    0.44357    0.49983    1.000
    O129     O        0.10355    0.44318    0.50269    1.000
    O130     O        0.94236    0.49781    0.39595    1.000
    O131     O        0.94253    0.50021    0.60700    1.000
    O132     O        0.05367    0.49707    0.60690    1.000
    O133     O        0.05351    0.50050    0.39588    1.000
    O134     O        0.99646    0.39350    0.44571    1.000
    O135     O        0.99941    0.39322    0.55683    1.000
    O136     O        0.99640    0.44358    0.39585    1.000
    O137     O        0.99945    0.44305    0.60693    1.000
    O138     O        0.89248    0.49781    0.44588    1.000
    O139     O        0.10353    0.50032    0.44578    1.000
    O140     O        0.10359    0.49713    0.55688    1.000
    O141     O        0.89255    0.50041    0.55705    1.000
    O142     O        0.94246    0.39354    0.49975    1.000
    O143     O        0.05353    0.39328    0.50268    1.000
    Zr144    Zr       0.92591    0.49906    0.50147    1.000
    Zr145    Zr       0.07022    0.49876    0.50138    1.000
    Zr146    Zr       0.99798    0.49905    0.42930    1.000
    Zr147    Zr       0.99809    0.49872    0.57366    1.000
    Zr148    Zr       0.99802    0.42674    0.50133    1.000
    O149     O        0.03524    0.46157    0.53857    1.000
    O150     O        0.96081    0.46185    0.46423    1.000
    X151     C        0.90451    0.40559    0.49898    1.000
    X152     C        0.09155    0.40519    0.50339    1.000
    X153     C        0.90428    0.49716    0.40778    1.000
    X154     C        0.90453    0.50104    0.59505    1.000
    X155     C        0.09164    0.49630    0.59487    1.000
    X156     C        0.09153    0.50117    0.40780    1.000
    X157     C        0.99567    0.40556    0.40774    1.000
    X158     C        0.00015    0.40507    0.59488    1.000
    H159     H        0.05250    0.44438    0.44674    1.000
    O160     O        0.03504    0.46187    0.46429    1.000
    H161     H        0.94348    0.44433    0.55590    1.000
    O162     O        0.96100    0.46185    0.53843    1.000
    O163     O        0.60460    0.05403    0.49923    1.000
    O164     O        0.39362    0.05383    0.50245    1.000
    O165     O        0.50049    0.10406    0.44555    1.000
    O166     O        0.49770    0.10375    0.55660    1.000
    O167     O        0.49788    0.05367    0.60643    1.000
    O168     O        0.50060    0.05425    0.39544    1.000
    O169     O        0.44349    0.10387    0.50255    1.000
    O170     O        0.55454    0.10389    0.49948    1.000
    Zr171    Zr       0.49909    0.07053    0.50097    1.000
    O172     O        0.46202    0.03546    0.53814    1.000
    O173     O        0.53635    0.03574    0.46366    1.000
    X174     C        0.59252    0.09198    0.49859    1.000
    X175     C        0.40551    0.09185    0.50326    1.000
    X176     C        0.50128    0.09220    0.40752    1.000
    X177     C        0.49705    0.09168    0.59455    1.000
    H178     H        0.44456    0.05303    0.44642    1.000
    O179     O        0.46210    0.03551    0.46386    1.000
    H180     H        0.55376    0.05283    0.55535    1.000
    O181     O        0.53626    0.03535    0.53784    1.000
    O182     O        0.39380    0.94281    0.49933    1.000
    O183     O        0.60480    0.94291    0.50201    1.000
    O184     O        0.44365    0.99713    0.39536    1.000
    O185     O        0.44384    0.99961    0.60634    1.000
    O186     O        0.55488    0.99669    0.60614    1.000
    O187     O        0.55474    0.00010    0.39515    1.000
    O188     O        0.49770    0.89308    0.44508    1.000
    O189     O        0.50082    0.89272    0.55619    1.000
    O190     O        0.49763    0.94319    0.39525    1.000
    O191     O        0.50082    0.94258    0.60624    1.000
    O192     O        0.39374    0.99691    0.44538    1.000
    O193     O        0.60477    0.99998    0.44503    1.000
    O194     O        0.60480    0.99690    0.55613    1.000
    O195     O        0.39382    0.99970    0.55644    1.000
    O196     O        0.44376    0.89284    0.49920    1.000
    O197     O        0.55488    0.89290    0.50202    1.000
    Zr198    Zr       0.42710    0.99835    0.50088    1.000
    Zr199    Zr       0.57140    0.99843    0.50064    1.000
    Zr200    Zr       0.49921    0.99861    0.42865    1.000
    Zr201    Zr       0.49931    0.99820    0.57293    1.000
    Zr202    Zr       0.49930    0.92623    0.50069    1.000
    O203     O        0.53652    0.96115    0.53785    1.000
    O204     O        0.46210    0.96131    0.46360    1.000
    X205     C        0.40577    0.90483    0.49851    1.000
    X206     C        0.59286    0.90491    0.50275    1.000
    X207     C        0.40568    0.99627    0.40739    1.000
    X208     C        0.40585    0.00039    0.59440    1.000
    X209     C        0.59284    0.99602    0.59412    1.000
    X210     C        0.59277    0.00079    0.40704    1.000
    X211     C        0.49686    0.90520    0.40715    1.000
    X212     C        0.50156    0.90460    0.59421    1.000
    H213     H        0.55377    0.94399    0.44606    1.000
    O214     O        0.53627    0.96144    0.46361    1.000
    H215     H        0.44478    0.94368    0.55531    1.000
    O216     O        0.46225    0.96122    0.53782    1.000
    C217     C        0.18616    0.18586    0.99587    1.000
    C218     C        0.19692    0.14413    0.99638    1.000
    C219     C        0.16666    0.11375    0.99708    1.000
    X220     C        0.12484    0.12434    0.99725    1.000
    C221     C        0.11412    0.16612    0.99646    1.000
    C222     C        0.14439    0.19646    0.99580    1.000
    C223     C        0.21834    0.21821    0.99571    1.000
    C224     C        0.21360    0.25396    0.01932    1.000
    C225     C        0.24387    0.28432    0.01934    1.000
    C226     C        0.27965    0.27970    0.99576    1.000
    C227     C        0.28439    0.24396    0.97212    1.000
    C228     C        0.25411    0.21359    0.97210    1.000
    C229     C        0.31193    0.31196    0.99599    1.000
    C230     C        0.35368    0.30128    0.99651    1.000
    C231     C        0.38400    0.33160    0.99725    1.000
    X232     C        0.37333    0.37340    0.99747    1.000
    C233     C        0.33153    0.38405    0.99669    1.000
    C234     C        0.30124    0.35371    0.99598    1.000
    H235     H        0.22880    0.13493    0.99694    1.000
    H236     H        0.17613    0.08194    0.99772    1.000
    H237     H        0.08227    0.17550    0.99637    1.000
    H238     H        0.13506    0.22830    0.99481    1.000
    H239     H        0.18676    0.25818    0.03838    1.000
    H240     H        0.23957    0.31114    0.03843    1.000
    H241     H        0.31128    0.23974    0.95313    1.000
    H242     H        0.25842    0.18673    0.95309    1.000
    H243     H        0.36295    0.26942    0.99704    1.000
    H244     H        0.41582    0.32218    0.99789    1.000
    H245     H        0.32210    0.41587    0.99663    1.000
    H246     H        0.26939    0.36298    0.99499    1.000
    C247     C        0.18553    0.68577    0.49649    1.000
    C248     C        0.19615    0.64400    0.49678    1.000
    C249     C        0.16579    0.61371    0.49758    1.000
    X250     C        0.12400    0.62442    0.49808    1.000
    C251     C        0.11342    0.66624    0.49754    1.000
    C252     C        0.14379    0.69650    0.49678    1.000
    C253     C        0.21785    0.71802    0.49617    1.000
    C254     C        0.21341    0.75376    0.51986    1.000
    C255     C        0.24382    0.78398    0.51976    1.000
    C256     C        0.27946    0.77925    0.49597    1.000
    C257     C        0.28391    0.74352    0.47226    1.000
    C258     C        0.25348    0.71328    0.47235    1.000
    C259     C        0.31187    0.81140    0.49604    1.000
    C260     C        0.35360    0.80059    0.49626    1.000
    C261     C        0.38403    0.83082    0.49689    1.000
    X262     C        0.37350    0.87266    0.49729    1.000
    C263     C        0.33173    0.88342    0.49678    1.000
    C264     C        0.30134    0.85319    0.49619    1.000
    H265     H        0.22800    0.63468    0.49709    1.000
    H266     H        0.17518    0.58188    0.49803    1.000
    H267     H        0.08160    0.67572    0.49771    1.000
    H268     H        0.13455    0.72837    0.49597    1.000
    H269     H        0.18670    0.75806    0.53908    1.000
    H270     H        0.23974    0.81079    0.53890    1.000
    H271     H        0.31067    0.73920    0.45311    1.000
    H272     H        0.25758    0.68643    0.45328    1.000
    H273     H        0.36277    0.76870    0.49665    1.000
    H274     H        0.41583    0.82131    0.49731    1.000
    H275     H        0.32238    0.91527    0.49687    1.000
    H276     H        0.26950    0.86257    0.49542    1.000
    C277     C        0.81166    0.81212    0.99555    1.000
    C278     C        0.80112    0.85390    0.99567    1.000
    C279     C        0.83152    0.88409    0.99647    1.000
    X280     C        0.87326    0.87327    0.99722    1.000
    C281     C        0.88379    0.83144    0.99685    1.000
    C282     C        0.85336    0.80126    0.99602    1.000
    C283     C        0.77928    0.78003    0.99524    1.000
    C284     C        0.78380    0.74445    0.97135    1.000
    C285     C        0.75342    0.71419    0.97130    1.000
    C286     C        0.71781    0.71881    0.99512    1.000
    C287     C        0.71326    0.75443    0.01895    1.000
    C288     C        0.74363    0.78467    0.01901    1.000
    C289     C        0.68562    0.68652    0.99536    1.000
    C290     C        0.64386    0.69716    0.99546    1.000
    C291     C        0.61360    0.66682    0.99622    1.000
    X292     C        0.62434    0.62506    0.99697    1.000
    C293     C        0.66615    0.61445    0.99663    1.000
    C294     C        0.69639    0.64480    0.99583    1.000
    H295     H        0.76930    0.86329    0.99472    1.000
    H296     H        0.82220    0.91596    0.99652    1.000
    H297     H        0.91558    0.82190    0.99745    1.000
    H298     H        0.86249    0.76935    0.99644    1.000
    H299     H        0.81060    0.74024    0.95222    1.000
    H300     H        0.75756    0.68741    0.95213    1.000
    H301     H        0.68652    0.75861    0.03817    1.000
    H302     H        0.73952    0.81139    0.03827    1.000
    H303     H        0.63455    0.72900    0.99452    1.000
    H304     H        0.58175    0.67620    0.99626    1.000
    H305     H        0.67563    0.58264    0.99723    1.000
    H306     H        0.72828    0.63560    0.99628    1.000
    C307     C        0.81096    0.31212    0.49581    1.000
    C308     C        0.80026    0.35385    0.49610    1.000
    C309     C        0.83055    0.38415    0.49695    1.000
    X310     C        0.87233    0.37345    0.49758    1.000
    C311     C        0.88299    0.33165    0.49705    1.000
    C312     C        0.85268    0.30138    0.49617    1.000
    C313     C        0.77873    0.27990    0.49549    1.000
    C314     C        0.78333    0.24443    0.47145    1.000
    C315     C        0.75314    0.21401    0.47145    1.000
    C316     C        0.71763    0.21835    0.49548    1.000
    C317     C        0.71300    0.25386    0.51946    1.000
    C318     C        0.74319    0.28427    0.51947    1.000
    C319     C        0.68560    0.18593    0.49572    1.000
    C320     C        0.64382    0.19643    0.49594    1.000
    C321     C        0.61368    0.16600    0.49669    1.000
    X322     C        0.62457    0.12426    0.49729    1.000
    C323     C        0.66641    0.11379    0.49682    1.000
    C324     C        0.69654    0.14426    0.49603    1.000
    H325     H        0.76840    0.36313    0.49526    1.000
    H326     H        0.82114    0.41599    0.49713    1.000
    H327     H        0.91481    0.32221    0.49756    1.000
    H328     H        0.86192    0.26950    0.49647    1.000
    H329     H        0.81006    0.24044    0.45218    1.000
    H330     H        0.75732    0.18731    0.45216    1.000
    H331     H        0.68634    0.25781    0.53883    1.000
    H332     H        0.73903    0.31090    0.53884    1.000
    H333     H        0.63439    0.22824    0.49511    1.000
    H334     H        0.58180    0.17527    0.49682    1.000
    H335     H        0.67599    0.08200    0.49730    1.000
    H336     H        0.72847    0.13518    0.49637    1.000
    C337     C        0.81220    0.18625    0.00559    1.000
    C338     C        0.85399    0.19681    0.00528    1.000
    C339     C        0.88423    0.16642    0.00453    1.000
    X340     C        0.87347    0.12465    0.00404    1.000
    C341     C        0.83164    0.11411    0.00456    1.000
    C342     C        0.80141    0.14452    0.00534    1.000
    C343     C        0.78003    0.21863    0.00591    1.000
    C344     C        0.74442    0.21407    0.02978    1.000
    C345     C        0.71412    0.24443    0.02988    1.000
    C346     C        0.71867    0.28011    0.00610    1.000
    C347     C        0.75431    0.28468    0.98228    1.000
    C348     C        0.78460    0.25433    0.98219    1.000
    C349     C        0.68634    0.31233    0.00595    1.000
    C350     C        0.69694    0.35410    0.00569    1.000
    C351     C        0.66658    0.38438    0.00504    1.000
    X352     C        0.62480    0.37366    0.00457    1.000
    C353     C        0.61422    0.33184    0.00506    1.000
    C354     C        0.64460    0.30158    0.00575    1.000
    H355     H        0.86336    0.22864    0.00605    1.000
    H356     H        0.91609    0.17577    0.00435    1.000
    H357     H        0.82214    0.08230    0.00415    1.000
    H358     H        0.76952    0.13534    0.00506    1.000
    H359     H        0.74024    0.18726    0.04889    1.000
    H360     H        0.68736    0.24024    0.04906    1.000
    H361     H        0.75847    0.31144    0.96309    1.000
    H362     H        0.81131    0.25850    0.96293    1.000
    H363     H        0.72878    0.36343    0.00643    1.000
    H364     H        0.67596    0.41622    0.00487    1.000
    H365     H        0.58240    0.32236    0.00467    1.000
    H366     H        0.63538    0.26970    0.00543    1.000
    C367     C        0.81263    0.68519    0.50631    1.000
    C368     C        0.85440    0.69570    0.50621    1.000
    C369     C        0.88467    0.66533    0.50562    1.000
    X370     C        0.87404    0.62340    0.50503    1.000
    C371     C        0.83205    0.61302    0.50539    1.000
    C372     C        0.80185    0.64348    0.50603    1.000
    C373     C        0.78044    0.71760    0.50639    1.000
    C374     C        0.74463    0.71305    0.52996    1.000
    C375     C        0.71431    0.74341    0.52980    1.000
    C376     C        0.71904    0.77909    0.50606    1.000
    C377     C        0.75488    0.78365    0.48254    1.000
    C378     C        0.78518    0.75330    0.48270    1.000
    C379     C        0.68668    0.81133    0.50566    1.000
    C380     C        0.69728    0.85312    0.50541    1.000
    C381     C        0.66692    0.88341    0.50461    1.000
    X382     C        0.62513    0.87271    0.50400    1.000
    C383     C        0.61455    0.83088    0.50444    1.000
    C384     C        0.64494    0.80061    0.50528    1.000
    H385     H        0.86376    0.72754    0.50703    1.000
    H386     H        0.91645    0.67495    0.50558    1.000
    H387     H        0.82224    0.58130    0.50494    1.000
    H388     H        0.76995    0.63432    0.50559    1.000
    H389     H        0.74029    0.68624    0.54905    1.000
    H390     H        0.68740    0.73921    0.54877    1.000
    H391     H        0.75920    0.81041    0.46338    1.000
    H392     H        0.81204    0.75748    0.46365    1.000
    H393     H        0.72912    0.86245    0.50629    1.000
    H394     H        0.67630    0.91525    0.50449    1.000
    H395     H        0.58274    0.82141    0.50394    1.000
    H396     H        0.63571    0.76873    0.50493    1.000
    C397     C        0.18520    0.31132    0.50591    1.000
    C398     C        0.19589    0.35308    0.50566    1.000
    C399     C        0.16560    0.38347    0.50498    1.000
    X400     C        0.12377    0.37290    0.50455    1.000
    C401     C        0.11309    0.33110    0.50503    1.000
    C402     C        0.14340    0.30073    0.50568    1.000
    C403     C        0.21747    0.27895    0.50615    1.000
    C404     C        0.21285    0.24312    0.48261    1.000
    C405     C        0.24322    0.21282    0.48261    1.000
    C406     C        0.27904    0.21754    0.50614    1.000
    C407     C        0.28365    0.25334    0.52973    1.000
    C408     C        0.25327    0.28365    0.52973    1.000
    C409     C        0.31148    0.18534    0.50592    1.000
    C410     C        0.35323    0.19611    0.50566    1.000
    C411     C        0.38367    0.16588    0.50495    1.000
    X412     C        0.37318    0.12402    0.50451    1.000
    C413     C        0.33139    0.11328    0.50503    1.000
    C414     C        0.30098    0.14352    0.50570    1.000
    H415     H        0.22777    0.36232    0.50531    1.000
    H416     H        0.17507    0.41528    0.50457    1.000
    H417     H        0.08125    0.32171    0.50491    1.000
    H418     H        0.13407    0.26889    0.50645    1.000
    H419     H        0.18601    0.23880    0.46356    1.000
    H420     H        0.23897    0.18598    0.46355    1.000
    H421     H        0.31054    0.25768    0.54871    1.000
    H422     H        0.25754    0.31054    0.54871    1.000
    H423     H        0.36241    0.22800    0.50530    1.000
    H424     H        0.41547    0.17540    0.50452    1.000
    H425     H        0.32206    0.08142    0.50490    1.000
    H426     H        0.26915    0.13413    0.50649    1.000
    C427     C        0.18487    0.81251    0.00553    1.000
    C428     C        0.19555    0.85426    0.00531    1.000
    C429     C        0.16529    0.88469    0.00468    1.000
    X430     C        0.12329    0.87427    0.00426    1.000
    C431     C        0.11276    0.83231    0.00477    1.000
    C432     C        0.14309    0.80196    0.00537    1.000
    C433     C        0.21716    0.78010    0.00566    1.000
    C434     C        0.21243    0.74424    0.98218    1.000
    C435     C        0.24279    0.71391    0.98210    1.000
    C436     C        0.27871    0.71861    0.00549    1.000
    C437     C        0.28343    0.75445    0.02901    1.000
    C438     C        0.25306    0.78479    0.02909    1.000
    C439     C        0.31114    0.68635    0.00519    1.000
    C440     C        0.35290    0.69707    0.00489    1.000
    C441     C        0.38333    0.66680    0.00419    1.000
    X442     C        0.37281    0.62495    0.00379    1.000
    C443     C        0.33101    0.61425    0.00431    1.000
    C444     C        0.30061    0.64454    0.00497    1.000
    H445     H        0.22743    0.86349    0.00492    1.000
    H446     H        0.17505    0.91642    0.00428    1.000
    H447     H        0.08099    0.82264    0.00469    1.000
    H448     H        0.13376    0.77012    0.00614    1.000
    H449     H        0.18552    0.73992    0.96324    1.000
    H450     H        0.23843    0.68705    0.96309    1.000
    H451     H        0.31039    0.75880    0.04788    1.000
    H452     H        0.25743    0.81169    0.04803    1.000
    H453     H        0.36212    0.72895    0.00453    1.000
    H454     H        0.41513    0.67630    0.00375    1.000
    H455     H        0.32165    0.58240    0.00421    1.000
    H456     H        0.26878    0.63516    0.00579    1.000
    C457     C        0.99372    0.18633    0.18759    1.000
    C458     C        0.99406    0.19691    0.14581    1.000
    C459     C        0.99489    0.16654    0.11554    1.000
    X460     C        0.99545    0.12475    0.12627    1.000
    C461     C        0.99490    0.11420    0.16810    1.000
    C462     C        0.99404    0.14460    0.19835    1.000
    C463     C        0.99330    0.21869    0.21981    1.000
    C464     C        0.96948    0.21401    0.25544    1.000
    C465     C        0.96934    0.24431    0.28581    1.000
    C466     C        0.99302    0.28005    0.28132    1.000
    C467     C        0.01678    0.28476    0.24566    1.000
    C468     C        0.01692    0.25447    0.21530    1.000
    C469     C        0.99313    0.31221    0.31374    1.000
    C470     C        0.99330    0.35401    0.30323    1.000
    C471     C        0.99391    0.38423    0.33365    1.000
    X472     C        0.99443    0.37343    0.37542    1.000
    C473     C        0.99401    0.33159    0.38591    1.000
    C474     C        0.99336    0.30138    0.35546    1.000
    H475     H        0.99324    0.22875    0.13645    1.000
    H476     H        0.99510    0.17590    0.08369    1.000
    H477     H        0.99536    0.08240    0.17760    1.000
    H478     H        0.99431    0.13539    0.23023    1.000
    H479     H        0.95044    0.18714    0.25959    1.000
    H480     H        0.95020    0.24000    0.31259    1.000
    H481     H        0.03589    0.31158    0.24153    1.000
    H482     H        0.03614    0.25875    0.18858    1.000
    H483     H        0.99253    0.36341    0.27141    1.000
    H484     H        0.99402    0.41609    0.32434    1.000
    H485     H        0.99444    0.32205    0.41771    1.000
    H486     H        0.99374    0.26948    0.36462    1.000
    C487     C        0.49427    0.31140    0.81423    1.000
    C488     C        0.49455    0.35312    0.80337    1.000
    C489     C        0.49526    0.38359    0.83355    1.000
    X490     C        0.49568    0.37313    0.87541    1.000
    C491     C        0.49515    0.33137    0.88623    1.000
    C492     C        0.49448    0.30092    0.85603    1.000
    C493     C        0.49403    0.27896    0.78209    1.000
    C494     C        0.51771    0.24324    0.78678    1.000
    C495     C        0.51772    0.21286    0.75651    1.000
    C496     C        0.49405    0.21741    0.72077    1.000
    C497     C        0.47030    0.25309    0.71611    1.000
    C498     C        0.47029    0.28348    0.74639    1.000
    C499     C        0.49433    0.18518    0.68842    1.000
    C500     C        0.49461    0.19592    0.64668    1.000
    C501     C        0.49536    0.16567    0.61629    1.000
    X502     C        0.49583    0.12384    0.62685    1.000
    C503     C        0.49531    0.11312    0.66863    1.000
    C504     C        0.49460    0.14339    0.69900    1.000
    H505     H        0.49492    0.36225    0.77146    1.000
    H506     H        0.49571    0.41537    0.82399    1.000
    H507     H        0.49526    0.32207    0.91810    1.000
    H508     H        0.49368    0.26911    0.86546    1.000
    H509     H        0.53686    0.23908    0.81357    1.000
    H510     H        0.53688    0.18609    0.76077    1.000
    H511     H        0.45122    0.25727    0.68927    1.000
    H512     H        0.45121    0.31030    0.74210    1.000
    H513     H        0.49494    0.22781    0.63747    1.000
    H514     H        0.49579    0.17517    0.58449    1.000
    H515     H        0.49546    0.08127    0.67800    1.000
    H516     H        0.49381    0.13405    0.73084    1.000
    C517     C        0.99421    0.81229    0.81527    1.000
    C518     C        0.99451    0.85402    0.80451    1.000
    C519     C        0.99527    0.88450    0.83471    1.000
    X520     C        0.99574    0.87416    0.87672    1.000
    C521     C        0.99517    0.83222    0.88734    1.000
    C522     C        0.99445    0.80182    0.85706    1.000
    C523     C        0.99389    0.77983    0.78305    1.000
    C524     C        0.01731    0.74392    0.78777    1.000
    C525     C        0.01721    0.71353    0.75748    1.000
    C526     C        0.99370    0.71822    0.72163    1.000
    C527     C        0.97023    0.75409    0.71693    1.000
    C528     C        0.97033    0.78449    0.74724    1.000
    C529     C        0.99384    0.68593    0.68924    1.000
    C530     C        0.99404    0.69662    0.64748    1.000
    C531     C        0.99463    0.66633    0.61708    1.000
    X532     C        0.99503    0.62449    0.62762    1.000
    C533     C        0.99460    0.61381    0.66942    1.000
    C534     C        0.99404    0.64412    0.69980    1.000
    H535     H        0.99486    0.86318    0.77261    1.000
    H536     H        0.99572    0.91622    0.82490    1.000
    H537     H        0.99528    0.82260    0.91912    1.000
    H538     H        0.99361    0.76999    0.86646    1.000
    H539     H        0.03635    0.73961    0.81462    1.000
    H540     H        0.03618    0.68664    0.76181    1.000
    H541     H        0.95126    0.75843    0.69004    1.000
    H542     H        0.95143    0.81143    0.74289    1.000
    H543     H        0.99442    0.72849    0.63823    1.000
    H544     H        0.99501    0.67582    0.58526    1.000
    H545     H        0.99470    0.58197    0.67880    1.000
    H546     H        0.99331    0.63477    0.73164    1.000
    C547     C        0.49327    0.68667    0.18720    1.000
    C548     C        0.49342    0.69728    0.14545    1.000
    C549     C        0.49423    0.66693    0.11522    1.000
    X550     C        0.49497    0.62518    0.12601    1.000
    C551     C        0.49458    0.61459    0.16783    1.000
    C552     C        0.49373    0.64497    0.19803    1.000
    C553     C        0.49301    0.71896    0.21934    1.000
    C554     C        0.46907    0.71439    0.25489    1.000
    C555     C        0.46916    0.74463    0.28527    1.000
    C556     C        0.49318    0.78012    0.28080    1.000
    C557     C        0.51704    0.78472    0.24521    1.000
    C558     C        0.51696    0.75450    0.21485    1.000
    C559     C        0.49356    0.81215    0.31320    1.000
    C560     C        0.49373    0.85393    0.30270    1.000
    C561     C        0.49463    0.88407    0.33313    1.000
    X562     C        0.49542    0.87317    0.37486    1.000
    C563     C        0.49501    0.83133    0.38534    1.000
    C564     C        0.49408    0.80121    0.35487    1.000
    H565     H        0.49250    0.72912    0.13611    1.000
    H566     H        0.49431    0.67627    0.08336    1.000
    H567     H        0.49518    0.58280    0.17734    1.000
    H568     H        0.49415    0.63580    0.22993    1.000
    H569     H        0.44982    0.68767    0.25897    1.000
    H570     H        0.44996    0.74048    0.31203    1.000
    H571     H        0.53639    0.81138    0.24116    1.000
    H572     H        0.53625    0.75861    0.18815    1.000
    H573     H        0.49276    0.86336    0.27089    1.000
    H574     H        0.49471    0.91595    0.32386    1.000
    H575     H        0.49564    0.82175    0.41711    1.000
    H576     H        0.49447    0.76928    0.36395    1.000
    C577     C        0.00368    0.81213    0.18850    1.000
    C578     C        0.00341    0.80127    0.14679    1.000
    C579     C        0.00273    0.83145    0.11633    1.000
    X580     C        0.00232    0.87330    0.12681    1.000
    C581     C        0.00285    0.88412    0.16856    1.000
    C582     C        0.00349    0.85393    0.19899    1.000
    C583     C        0.00386    0.78001    0.22093    1.000
    C584     C        0.98009    0.78471    0.25659    1.000
    C585     C        0.98004    0.75446    0.28698    1.000
    C586     C        0.00373    0.71874    0.28248    1.000
    C587     C        0.02756    0.71406    0.24686    1.000
    C588     C        0.02762    0.74433    0.21646    1.000
    C589     C        0.00338    0.68642    0.31470    1.000
    C590     C        0.00302    0.64469    0.30395    1.000
    C591     C        0.00219    0.61431    0.33421    1.000
    X592     C        0.00173    0.62489    0.37603    1.000
    C593     C        0.00233    0.66667    0.38676    1.000
    C594     C        0.00312    0.69703    0.35648    1.000
    H595     H        0.00303    0.76936    0.13766    1.000
    H596     H        0.00229    0.82189    0.08454    1.000
    H597     H        0.00275    0.91599    0.17786    1.000
    H598     H        0.00429    0.86335    0.23081    1.000
    H599     H        0.96092    0.81150    0.26070    1.000
    H600     H        0.96082    0.75872    0.31371    1.000
    H601     H        0.04665    0.68723    0.24272    1.000
    H602     H        0.04675    0.74004    0.18968    1.000
    H603     H        0.00269    0.63547    0.27207    1.000
    H604     H        0.00170    0.58250    0.32472    1.000
    H605     H        0.00218    0.67604    0.41860    1.000
    H606     H        0.00397    0.72887    0.36581    1.000
    C607     C        0.50377    0.68460    0.81416    1.000
    C608     C        0.50339    0.69538    0.85588    1.000
    C609     C        0.50261    0.66520    0.88637    1.000
    X610     C        0.50220    0.62318    0.87605    1.000
    C611     C        0.50286    0.61254    0.83412    1.000
    C612     C        0.50360    0.64280    0.80371    1.000
    C613     C        0.50410    0.71680    0.78169    1.000
    C614     C        0.48073    0.71205    0.74576    1.000
    C615     C        0.48080    0.74235    0.71538    1.000
    C616     C        0.50426    0.77823    0.72010    1.000
    C617     C        0.52769    0.78295    0.75599    1.000
    C618     C        0.52761    0.75264    0.78638    1.000
    C619     C        0.50408    0.81063    0.68783    1.000
    C620     C        0.50378    0.85240    0.69854    1.000
    C621     C        0.50312    0.88281    0.66827    1.000
    X622     C        0.50276    0.87228    0.62642    1.000
    C623     C        0.50331    0.83048    0.61573    1.000
    C624     C        0.50393    0.80009    0.64602    1.000
    H625     H        0.50299    0.72728    0.86502    1.000
    H626     H        0.50210    0.67503    0.91808    1.000
    H627     H        0.50279    0.58075    0.82453    1.000
    H628     H        0.50449    0.63339    0.77189    1.000
    H629     H        0.46173    0.68518    0.74143    1.000
    H630     H        0.46186    0.73800    0.68847    1.000
    H631     H        0.54661    0.80987    0.76035    1.000
    H632     H        0.54648    0.75702    0.81334    1.000
    H633     H        0.50335    0.86162    0.73042    1.000
    H634     H        0.50265    0.91461    0.67776    1.000
    H635     H        0.50324    0.82111    0.58388    1.000
    H636     H        0.50475    0.76825    0.63666    1.000
    C637     C        0.50395    0.31244    0.18841    1.000
    C638     C        0.50368    0.30168    0.14668    1.000
    C639     C        0.50292    0.33193    0.11628    1.000
    X640     C        0.50243    0.37376    0.12684    1.000
    C641     C        0.50296    0.38449    0.16863    1.000
    C642     C        0.50368    0.35422    0.19900    1.000
    C643     C        0.50422    0.28022    0.22076    1.000
    C644     C        0.48052    0.28477    0.25648    1.000
    C645     C        0.48052    0.25440    0.28676    1.000
    C646     C        0.50421    0.21869    0.28210    1.000
    C647     C        0.52798    0.21416    0.24641    1.000
    C648     C        0.52798    0.24454    0.21613    1.000
    C649     C        0.50395    0.18626    0.31423    1.000
    C650     C        0.50367    0.14454    0.30338    1.000
    C651     C        0.50294    0.11408    0.33357    1.000
    X652     C        0.50250    0.12455    0.37542    1.000
    C653     C        0.50302    0.16631    0.38624    1.000
    C654     C        0.50372    0.19674    0.35604    1.000
    H655     H        0.50335    0.26980    0.13747    1.000
    H656     H        0.50248    0.32244    0.08448    1.000
    H657     H        0.50279    0.41634    0.17799    1.000
    H658     H        0.50446    0.36357    0.23083    1.000
    H659     H        0.46134    0.31153    0.26072    1.000
    H660     H        0.46134    0.25856    0.31353    1.000
    H661     H        0.54707    0.18735    0.24215    1.000
    H662     H        0.54708    0.24036    0.18931    1.000
    H663     H        0.50333    0.13541    0.27148    1.000
    H664     H        0.50250    0.08229    0.32401    1.000
    H665     H        0.50290    0.17560    0.41811    1.000
    H666     H        0.50452    0.22856    0.36546    1.000
    C667     C        0.00352    0.18444    0.81441    1.000
    C668     C        0.00333    0.19511    0.85617    1.000
    C669     C        0.00275    0.16485    0.88660    1.000
    X670     C        0.00234    0.12285    0.87620    1.000
    C671     C        0.00281    0.11231    0.83423    1.000
    C672     C        0.00335    0.14265    0.80388    1.000
    C673     C        0.00360    0.21675    0.78201    1.000
    C674     C        0.98012    0.21202    0.74615    1.000
    C675     C        0.97996    0.24243    0.71585    1.000
    C676     C        0.00327    0.27840    0.72058    1.000
    C677     C        0.02681    0.28310    0.75641    1.000
    C678     C        0.02698    0.25269    0.78672    1.000
    C679     C        0.00289    0.31089    0.68837    1.000
    C680     C        0.00260    0.35264    0.69915    1.000
    C681     C        0.00182    0.38312    0.66892    1.000
    X682     C        0.00135    0.37268    0.62705    1.000
    C683     C        0.00186    0.33089    0.61629    1.000
    C684     C        0.00260    0.30044    0.64653    1.000
    H685     H        0.00293    0.22699    0.86540    1.000
    H686     H        0.00238    0.17461    0.91833    1.000
    H687     H        0.00273    0.08054    0.82457    1.000
    H688     H        0.00409    0.13332    0.77203    1.000
    H689     H        0.96122    0.18509    0.74180    1.000
    H690     H        0.96094    0.23807    0.68900    1.000
    H691     H        0.04564    0.31008    0.76079    1.000
    H692     H        0.04592    0.25707    0.81361    1.000
    H693     H        0.00228    0.36182    0.73104    1.000
    H694     H        0.00139    0.41491    0.67847    1.000
    H695     H        0.00171    0.32158    0.58443    1.000
    H696     H        0.00341    0.26863    0.63710    1.000
    C697     C        0.18584    0.99370    0.18819    1.000
    C698     C        0.19660    0.99400    0.14647    1.000
    C699     C        0.16636    0.99479    0.11609    1.000
    X700     C        0.12454    0.99527    0.12668    1.000
    C701     C        0.11380    0.99471    0.16845    1.000
    C702     C        0.14407    0.99396    0.19880    1.000
    C703     C        0.21803    0.99341    0.22052    1.000
    C704     C        0.21351    0.01720    0.25618    1.000
    C705     C        0.24385    0.01717    0.28646    1.000
    C706     C        0.27948    0.99335    0.28185    1.000
    C707     C        0.28399    0.96951    0.24622    1.000
    C708     C        0.25363    0.96954    0.21593    1.000
    C709     C        0.31184    0.99356    0.31400    1.000
    C710     C        0.35356    0.99386    0.30320    1.000
    C711     C        0.38397    0.99459    0.33342    1.000
    X712     C        0.37342    0.99501    0.37525    1.000
    C713     C        0.33165    0.99443    0.38602    1.000
    C714     C        0.30127    0.99374    0.35578    1.000
    H715     H        0.22849    0.99433    0.13726    1.000
    H716     H        0.17584    0.99525    0.08428    1.000
    H717     H        0.08196    0.99486    0.17782    1.000
    H718     H        0.13474    0.99314    0.23065    1.000
    H719     H        0.18680    0.03645    0.26036    1.000
    H720     H        0.23973    0.03640    0.31320    1.000
    H721     H        0.31076    0.95034    0.24202    1.000
    H722     H        0.25777    0.95039    0.18913    1.000
    H723     H        0.36273    0.99424    0.27130    1.000
    H724     H        0.41577    0.99506    0.32391    1.000
    H725     H        0.32230    0.99453    0.41787    1.000
    H726     H        0.26944    0.99292    0.36514    1.000
    C727     C        0.31161    0.49356    0.81392    1.000
    C728     C        0.30106    0.49367    0.85570    1.000
    C729     C        0.33145    0.49445    0.88591    1.000
    X730     C        0.37321    0.49520    0.87512    1.000
    C731     C        0.38375    0.49484    0.83329    1.000
    C732     C        0.35332    0.49401    0.80308    1.000
    C733     C        0.27921    0.49330    0.78180    1.000
    C734     C        0.28373    0.46952    0.74614    1.000
    C735     C        0.25330    0.46946    0.71591    1.000
    C736     C        0.21763    0.49320    0.72061    1.000
    C737     C        0.21311    0.51695    0.75629    1.000
    C738     C        0.24351    0.51700    0.78650    1.000
    C739     C        0.18535    0.49339    0.68837    1.000
    C740     C        0.14361    0.49351    0.69910    1.000
    C741     C        0.11325    0.49425    0.66883    1.000
    X742     C        0.12387    0.49494    0.62703    1.000
    C743     C        0.16567    0.49458    0.61633    1.000
    C744     C        0.19600    0.49380    0.64662    1.000
    H745     H        0.26924    0.49272    0.86508    1.000
    H746     H        0.32211    0.49450    0.91777    1.000
    H747     H        0.41554    0.49544    0.82377    1.000
    H748     H        0.36247    0.49444    0.77118    1.000
    H749     H        0.31055    0.45044    0.74186    1.000
    H750     H        0.25745    0.45035    0.68909    1.000
    H751     H        0.18634    0.53611    0.76055    1.000
    H752     H        0.23939    0.53620    0.81327    1.000
    H753     H        0.13436    0.49261    0.73097    1.000
    H754     H        0.08143    0.49431    0.67829    1.000
    H755     H        0.17507    0.49514    0.58450    1.000
    H756     H        0.22786    0.49423    0.63733    1.000
    C757     C        0.81205    0.99336    0.81375    1.000
    C758     C        0.80138    0.99349    0.85550    1.000
    C759     C        0.83168    0.99427    0.88580    1.000
    X760     C        0.87346    0.99498    0.87511    1.000
    C761     C        0.88411    0.99460    0.83331    1.000
    C762     C        0.85378    0.99379    0.80303    1.000
    C763     C        0.77977    0.99310    0.78154    1.000
    C764     C        0.78440    0.96926    0.74593    1.000
    C765     C        0.75411    0.96924    0.71558    1.000
    C766     C        0.71847    0.99306    0.72012    1.000
    C767     C        0.71384    0.01686    0.75575    1.000
    C768     C        0.74411    0.01688    0.78608    1.000
    C769     C        0.68631    0.99324    0.68779    1.000
    C770     C        0.64456    0.99330    0.69842    1.000
    C771     C        0.61429    0.99401    0.66809    1.000
    X772     C        0.62502    0.99473    0.62631    1.000
    C773     C        0.66683    0.99441    0.61570    1.000
    C774     C        0.69708    0.99366    0.64607    1.000
    H775     H        0.76952    0.99257    0.86479    1.000
    H776     H        0.82227    0.99434    0.91764    1.000
    H777     H        0.91593    0.99518    0.82386    1.000
    H778     H        0.86301    0.99420    0.77115    1.000
    H779     H        0.81121    0.95013    0.74179    1.000
    H780     H        0.75832    0.95010    0.68879    1.000
    H781     H        0.68709    0.03607    0.75987    1.000
    H782     H        0.73992    0.03611    0.81281    1.000
    H783     H        0.63523    0.99238    0.73026    1.000
    H784     H        0.58245    0.99403    0.67748    1.000
    H785     H        0.67630    0.99498    0.58389    1.000
    H786     H        0.72897    0.99412    0.63687    1.000
    C787     C        0.68598    0.49524    0.18873    1.000
    C788     C        0.69674    0.49546    0.14697    1.000
    C789     C        0.66651    0.49607    0.11648    1.000
    X790     C        0.62463    0.49646    0.12692    1.000
    C791     C        0.61389    0.49603    0.16872    1.000
    C792     C        0.64414    0.49545    0.19917    1.000
    C793     C        0.71820    0.49501    0.22125    1.000
    C794     C        0.71337    0.51831    0.25722    1.000
    C795     C        0.74363    0.51824    0.28767    1.000
    C796     C        0.77958    0.49487    0.28300    1.000
    C797     C        0.78439    0.47152    0.24705    1.000
    C798     C        0.75412    0.47159    0.21659    1.000
    C799     C        0.81193    0.49501    0.31539    1.000
    C800     C        0.85371    0.49520    0.30481    1.000
    C801     C        0.88409    0.49577    0.33513    1.000
    X802     C        0.87362    0.49617    0.37712    1.000
    C803     C        0.83163    0.49573    0.38756    1.000
    C804     C        0.80133    0.49520    0.35716    1.000
    H805     H        0.72864    0.49583    0.13779    1.000
    H806     H        0.67604    0.49645    0.08469    1.000
    H807     H        0.58203    0.49612    0.17804    1.000
    H808     H        0.63471    0.49469    0.23099    1.000
    H809     H        0.68646    0.53724    0.26155    1.000
    H810     H        0.73918    0.53713    0.31459    1.000
    H811     H        0.81135    0.45265    0.24270    1.000
    H812     H        0.75859    0.45277    0.18962    1.000
    H813     H        0.86300    0.49559    0.27295    1.000
    H814     H        0.91584    0.49613    0.32542    1.000
    H815     H        0.82191    0.49581    0.41932    1.000
    H816     H        0.76947    0.49445    0.36644    1.000
    C817     C        0.18649    0.00338    0.81403    1.000
    C818     C        0.14477    0.00307    0.80323    1.000
    C819     C        0.11436    0.00236    0.83345    1.000
    X820     C        0.12492    0.00197    0.87528    1.000
    C821     C        0.16669    0.00254    0.88605    1.000
    C822     C        0.19706    0.00321    0.85580    1.000
    C823     C        0.21884    0.00357    0.78187    1.000
    C824     C        0.25446    0.97975    0.78648    1.000
    C825     C        0.28478    0.97970    0.75618    1.000
    C826     C        0.28024    0.00347    0.72051    1.000
    C827     C        0.24464    0.02734    0.71592    1.000
    C828     C        0.21431    0.02739    0.74623    1.000
    C829     C        0.31242    0.00317    0.68818    1.000
    C830     C        0.30164    0.00282    0.64646    1.000
    C831     C        0.33188    0.00205    0.61607    1.000
    X832     C        0.37370    0.00163    0.62665    1.000
    C833     C        0.38445    0.00223    0.66843    1.000
    C834     C        0.35419    0.00297    0.69878    1.000
    H835     H        0.13559    0.00267    0.77133    1.000
    H836     H        0.08256    0.00189    0.82394    1.000
    H837     H        0.17604    0.00246    0.91790    1.000
    H838     H        0.22890    0.00403    0.86516    1.000
    H839     H        0.25859    0.96053    0.81323    1.000
    H840     H        0.31150    0.96045    0.76035    1.000
    H841     H        0.24049    0.04648    0.68912    1.000
    H842     H        0.18754    0.04656    0.74204    1.000
    H843     H        0.26975    0.00246    0.63726    1.000
    H844     H        0.32239    0.00156    0.58427    1.000
    H845     H        0.41629    0.00213    0.67779    1.000
    H846     H        0.36353    0.00382    0.73062    1.000
    C847     C        0.31133    0.50406    0.18788    1.000
    C848     C        0.30079    0.50389    0.14608    1.000
    C849     C        0.33118    0.50325    0.11581    1.000
    X850     C        0.37297    0.50273    0.12652    1.000
    C851     C        0.38350    0.50313    0.16836    1.000
    C852     C        0.35308    0.50380    0.19862    1.000
    C853     C        0.27892    0.50424    0.22011    1.000
    C854     C        0.28355    0.52780    0.25593    1.000
    C855     C        0.25319    0.52776    0.28625    1.000
    C856     C        0.21740    0.50417    0.28155    1.000
    C857     C        0.21276    0.48066    0.24570    1.000
    C858     C        0.24311    0.48070    0.21539    1.000
    C859     C        0.18514    0.50390    0.31392    1.000
    C860     C        0.14335    0.50371    0.30334    1.000
    C861     C        0.11305    0.50300    0.33371    1.000
    X862     C        0.12374    0.50242    0.37551    1.000
    C863     C        0.16557    0.50283    0.38607    1.000
    C864     C        0.19585    0.50358    0.35568    1.000
    H865     H        0.26896    0.50468    0.13671    1.000
    H866     H        0.32181    0.50316    0.08396    1.000
    H867     H        0.41531    0.50269    0.17786    1.000
    H868     H        0.36229    0.50341    0.23051    1.000
    H869     H        0.31043    0.54679    0.26026    1.000
    H870     H        0.25747    0.54672    0.31316    1.000
    H871     H        0.18593    0.46161    0.24138    1.000
    H872     H        0.23885    0.46166    0.18853    1.000
    H873     H        0.13401    0.50455    0.27151    1.000
    H874     H        0.08121    0.50290    0.32433    1.000
    H875     H        0.17505    0.50235    0.41788    1.000
    H876     H        0.22773    0.50320    0.36491    1.000
    C877     C        0.81269    0.00350    0.18665    1.000
    C878     C        0.80218    0.00329    0.14486    1.000
    C879     C        0.83254    0.00266    0.11452    1.000
    X880     C        0.87451    0.00217    0.12506    1.000
    C881     C        0.88489    0.00262    0.16706    1.000
    C882     C        0.85445    0.00329    0.19732    1.000
    C883     C        0.78026    0.00370    0.21895    1.000
    C884     C        0.78499    0.02708    0.25488    1.000
    C885     C        0.75463    0.02705    0.28526    1.000
    C886     C        0.71872    0.00363    0.28053    1.000
    C887     C        0.71397    0.98030    0.24457    1.000
    C888     C        0.74432    0.98033    0.21420    1.000
    C889     C        0.68644    0.00339    0.31298    1.000
    C890     C        0.64461    0.00316    0.30247    1.000
    C891     C        0.61432    0.00250    0.33288    1.000
    X892     C        0.62500    0.00200    0.37469    1.000
    C893     C        0.66686    0.00243    0.38519    1.000
    C894     C        0.69714    0.00313    0.35475    1.000
    H895     H        0.77034    0.00406    0.13550    1.000
    H896     H        0.82288    0.00255    0.08275    1.000
    H897     H        0.91663    0.00223    0.17683    1.000
    H898     H        0.86367    0.00293    0.22920    1.000
    H899     H        0.81194    0.04594    0.25929    1.000
    H900     H        0.75903    0.04588    0.31223    1.000
    H901     H        0.68706    0.96137    0.24018    1.000
    H902     H        0.73994    0.96142    0.18728    1.000
    H903     H        0.63523    0.00395    0.27064    1.000
    H904     H        0.58247    0.00237    0.32352    1.000
    H905     H        0.67636    0.00201    0.41699    1.000
    H906     H        0.72902    0.00277    0.36398    1.000
    C907     C        0.68500    0.50383    0.81513    1.000
    C908     C        0.64327    0.50354    0.80444    1.000
    C909     C        0.61286    0.50285    0.83469    1.000
    X910     C        0.62330    0.50244    0.87667    1.000
    C911     C        0.66525    0.50302    0.88722    1.000
    C912     C        0.69558    0.50367    0.85689    1.000
    C913     C        0.71735    0.50402    0.78287    1.000
    C914     C        0.75312    0.48040    0.78751    1.000
    C915     C        0.78343    0.48035    0.75715    1.000
    C916     C        0.77876    0.50393    0.72135    1.000
    C917     C        0.74301    0.52759    0.71673    1.000
    C918     C        0.71270    0.52763    0.74710    1.000
    C919     C        0.81098    0.50368    0.68895    1.000
    C920     C        0.80023    0.50342    0.64720    1.000
    C921     C        0.83049    0.50271    0.61679    1.000
    X922     C        0.87233    0.50225    0.62733    1.000
    C923     C        0.88304    0.50276    0.66912    1.000
    C924     C        0.85277    0.50344    0.69950    1.000
    H925     H        0.63405    0.50315    0.77255    1.000
    H926     H        0.58112    0.50241    0.82493    1.000
    H927     H        0.67492    0.50295    0.91899    1.000
    H928     H        0.72742    0.50449    0.86621    1.000
    H929     H        0.75739    0.46133    0.81433    1.000
    H930     H        0.81023    0.46125    0.76139    1.000
    H931     H        0.73872    0.54659    0.68985    1.000
    H932     H        0.68584    0.54667    0.74283    1.000
    H933     H        0.76835    0.50308    0.63799    1.000
    H934     H        0.82100    0.50228    0.58498    1.000
    H935     H        0.91489    0.50262    0.67849    1.000
    H936     H        0.86214    0.50423    0.73134    1.000
