# CIF file generated by openbabel 3.1.0, see https://openbabel.org
data_I
_chemical_name_common 'image0'
_cell_length_a 18.315
_cell_length_b 18.315
_cell_length_c 13.136
_cell_angle_alpha 90
_cell_angle_beta 90
_cell_angle_gamma 120
_space_group_name_H-M_alt 'P 1'
_space_group_name_Hall 'P 1'
loop_
    _symmetry_equiv_pos_as_xyz
    x,y,z
loop_
    _atom_site_label
    _atom_site_type_symbol
    _atom_site_fract_x
    _atom_site_fract_y
    _atom_site_fract_z
    _atom_site_occupancy
    F1       F        0.77734    0.59093    0.14252    1.000
    F2       F        0.88468    0.57471    0.01314    1.000
    Ga1      Ga       0.89425    0.65945    0.09644    1.000
    H1       H        0.02400    0.85000    0.98000    1.000
    O1       O        0.14466    0.85030    0.00360    1.000
    O2       O        0.02894    0.74392    0.88360    1.000
    O3       O        0.01122    0.73697    0.07290    1.000
    P1       P        0.05099    0.79514    0.98123    1.000
    F3       F        0.44401    0.92426    0.47585    1.000
    F4       F        0.55135    0.90804    0.34647    1.000
    Ga2      Ga       0.56092    0.99278    0.42977    1.000
    H2       H        0.69067    0.18333    0.31333    1.000
    O4       O        0.81133    0.18363    0.33693    1.000
    O5       O        0.69561    0.07725    0.21693    1.000
    O6       O        0.67789    0.07030    0.40623    1.000
    P2       P        0.71766    0.12847    0.31456    1.000
    F5       F        0.11067    0.25760    0.80919    1.000
    F6       F        0.21801    0.24138    0.67981    1.000
    Ga3      Ga       0.22758    0.32612    0.76311    1.000
    H3       H        0.35733    0.51667    0.64667    1.000
    O7       O        0.47799    0.51697    0.67027    1.000
    O8       O        0.36227    0.41059    0.55027    1.000
    O9       O        0.34455    0.40364    0.73957    1.000
    P3       P        0.38432    0.46181    0.64790    1.000
    F7       F        0.40907    0.18641    0.14252    1.000
    F8       F        0.42529    0.30997    0.01314    1.000
    Ga4      Ga       0.34055    0.23480    0.09644    1.000
    H4       H        0.15000    0.17400    0.98000    1.000
    O10      O        0.14970    0.29436    0.00360    1.000
    O11      O        0.25608    0.28502    0.88360    1.000
    O12      O        0.26303    0.27425    0.07290    1.000
    P4       P        0.20486    0.25585    0.98123    1.000
    F9       F        0.07574    0.51974    0.47585    1.000
    F10      F        0.09196    0.64330    0.34647    1.000
    Ga5      Ga       0.00722    0.56813    0.42977    1.000
    H5       H        0.81667    0.50733    0.31333    1.000
    O13      O        0.81637    0.62769    0.33693    1.000
    O14      O        0.92275    0.61835    0.21693    1.000
    O15      O        0.92970    0.60758    0.40623    1.000
    P5       P        0.87153    0.58918    0.31456    1.000
    F11      F        0.74240    0.85308    0.80919    1.000
    F12      F        0.75862    0.97664    0.67981    1.000
    Ga6      Ga       0.67388    0.90147    0.76311    1.000
    H6       H        0.48333    0.84067    0.64667    1.000
    O16      O        0.48303    0.96103    0.67027    1.000
    O17      O        0.58941    0.95169    0.55027    1.000
    O18      O        0.59636    0.94092    0.73957    1.000
    P6       P        0.53819    0.92252    0.64790    1.000
    F13      F        0.81359    0.22266    0.14252    1.000
    F14      F        0.69003    0.11532    0.01314    1.000
    Ga7      Ga       0.76520    0.10575    0.09644    1.000
    H7       H        0.82600    0.97600    0.98000    1.000
    O19      O        0.70564    0.85534    0.00360    1.000
    O20      O        0.71498    0.97106    0.88360    1.000
    O21      O        0.72575    0.98878    0.07290    1.000
    P7       P        0.74415    0.94901    0.98123    1.000
    F15      F        0.48026    0.55599    0.47585    1.000
    F16      F        0.35670    0.44865    0.34647    1.000
    Ga8      Ga       0.43187    0.43908    0.42977    1.000
    H8       H        0.49267    0.30933    0.31333    1.000
    O22      O        0.37231    0.18867    0.33693    1.000
    O23      O        0.38165    0.30439    0.21693    1.000
    O24      O        0.39242    0.32211    0.40623    1.000
    P8       P        0.41082    0.28234    0.31456    1.000
    F17      F        0.14692    0.88933    0.80919    1.000
    F18      F        0.02336    0.78199    0.67981    1.000
    Ga9      Ga       0.09853    0.77242    0.76311    1.000
    H9       H        0.15933    0.64267    0.64667    1.000
    O25      O        0.03897    0.52201    0.67027    1.000
    O26      O        0.04831    0.63773    0.55027    1.000
    O27      O        0.05908    0.65545    0.73957    1.000
    P9       P        0.07748    0.61568    0.64790    1.000
    F19      F        0.22266    0.40907    0.85748    1.000
    F20      F        0.11532    0.42529    0.98686    1.000
    Ga10     Ga       0.10575    0.34055    0.90356    1.000
    H10      H        0.97600    0.15000    0.02000    1.000
    O28      O        0.85534    0.14970    0.99640    1.000
    O29      O        0.97106    0.25608    0.11640    1.000
    O30      O        0.98878    0.26303    0.92710    1.000
    P10      P        0.94901    0.20486    0.01877    1.000
    F21      F        0.88933    0.74240    0.19081    1.000
    F22      F        0.78199    0.75862    0.32019    1.000
    Ga11     Ga       0.77242    0.67388    0.23689    1.000
    H11      H        0.64267    0.48333    0.35333    1.000
    O31      O        0.52201    0.48303    0.32973    1.000
    O32      O        0.63773    0.58941    0.44973    1.000
    O33      O        0.65545    0.59636    0.26043    1.000
    P11      P        0.61568    0.53819    0.35210    1.000
    F23      F        0.55599    0.07574    0.52415    1.000
    F24      F        0.44865    0.09196    0.65353    1.000
    Ga12     Ga       0.43908    0.00722    0.57023    1.000
    H12      H        0.30933    0.81667    0.68667    1.000
    O34      O        0.18867    0.81637    0.66307    1.000
    O35      O        0.30439    0.92275    0.78307    1.000
    O36      O        0.32211    0.92970    0.59377    1.000
    P12      P        0.28234    0.87153    0.68544    1.000
    F25      F        0.59093    0.81359    0.85748    1.000
    F26      F        0.57471    0.69003    0.98686    1.000
    Ga13     Ga       0.65945    0.76520    0.90356    1.000
    H13      H        0.85000    0.82600    0.02000    1.000
    O37      O        0.85030    0.70564    0.99640    1.000
    O38      O        0.74392    0.71498    0.11640    1.000
    O39      O        0.73697    0.72575    0.92710    1.000
    P13      P        0.79514    0.74415    0.01877    1.000
    F27      F        0.25760    0.14692    0.19081    1.000
    F28      F        0.24138    0.02336    0.32019    1.000
    Ga14     Ga       0.32612    0.09853    0.23689    1.000
    H14      H        0.51667    0.15933    0.35333    1.000
    O40      O        0.51697    0.03897    0.32973    1.000
    O41      O        0.41059    0.04831    0.44973    1.000
    O42      O        0.40364    0.05908    0.26043    1.000
    P14      P        0.46181    0.07748    0.35210    1.000
    F29      F        0.92426    0.48026    0.52415    1.000
    F30      F        0.90804    0.35670    0.65353    1.000
    Ga15     Ga       0.99278    0.43187    0.57023    1.000
    H15      H        0.18333    0.49267    0.68667    1.000
    O43      O        0.18363    0.37231    0.66307    1.000
    O44      O        0.07725    0.38165    0.78307    1.000
    O45      O        0.07030    0.39242    0.59377    1.000
    P15      P        0.12847    0.41082    0.68544    1.000
    F31      F        0.18641    0.77734    0.85748    1.000
    F32      F        0.30997    0.88468    0.98686    1.000
    Ga16     Ga       0.23480    0.89425    0.90356    1.000
    H16      H        0.17400    0.02400    0.02000    1.000
    O46      O        0.29436    0.14466    0.99640    1.000
    O47      O        0.28502    0.02894    0.11640    1.000
    O48      O        0.27425    0.01122    0.92710    1.000
    P16      P        0.25585    0.05099    0.01877    1.000
    F33      F        0.85308    0.11067    0.19081    1.000
    F34      F        0.97664    0.21801    0.32019    1.000
    Ga17     Ga       0.90147    0.22758    0.23689    1.000
    H17      H        0.84067    0.35733    0.35333    1.000
    O49      O        0.96103    0.47799    0.32973    1.000
    O50      O        0.95169    0.36227    0.44973    1.000
    O51      O        0.94092    0.34455    0.26043    1.000
    P17      P        0.92252    0.38432    0.35210    1.000
    F35      F        0.51974    0.44401    0.52415    1.000
    F36      F        0.64330    0.55135    0.65353    1.000
    Ga18     Ga       0.56813    0.56092    0.57023    1.000
    H18      H        0.50733    0.69067    0.68667    1.000
    O52      O        0.62769    0.81133    0.66307    1.000
    O53      O        0.61835    0.69561    0.78307    1.000
    O54      O        0.60758    0.67789    0.59377    1.000
    P18      P        0.58918    0.71766    0.68544    1.000
