# CIF file generated by openbabel 3.1.0, see https://openbabel.org
data_I
_chemical_name_common 'image0'
_cell_length_a 7.9985
_cell_length_b 9.7296
_cell_length_c 10.8506
_cell_angle_alpha 84.315
_cell_angle_beta 78.168
_cell_angle_gamma 75.064
_space_group_name_H-M_alt 'P 1'
_space_group_name_Hall 'P 1'
loop_
    _symmetry_equiv_pos_as_xyz
    x,y,z
loop_
    _atom_site_label
    _atom_site_type_symbol
    _atom_site_fract_x
    _atom_site_fract_y
    _atom_site_fract_z
    _atom_site_occupancy
    Cu1      Cu       0.41470    0.68700    0.82400    1.000
    Cu2      Cu       0.16130    0.54610    0.87490    1.000
    Cu3      Cu       0.80400    0.12820    0.34540    1.000
    O1       O        0.42170    0.67100    0.64360    1.000
    O2       O        0.20450    0.55150    0.69010    1.000
    O3       O        0.55550    0.36080    0.54960    1.000
    O4       O        0.64560    0.30730    0.34600    1.000
    O5       O        0.15140    0.56400    0.05590    1.000
    O6       O        0.37270    0.67500    0.00930    1.000
    O7       O        0.97030    0.95160    0.34230    1.000
    O8       O        0.02490    0.88030    0.14650    1.000
    O9       O        0.75640    0.85920    0.65260    1.000
    O10      O        0.57260    0.82980    0.83310    1.000
    O11      O        0.99030    0.73090    0.86820    1.000
    O12      O        0.20640    0.84970    0.82570    1.000
    O13      O        0.37950    0.38800    0.87580    1.000
    O14      O        0.59260    0.50140    0.82180    1.000
    O15      O        0.00750    0.40290    0.86850    1.000
    O16      O        0.81070    0.39430    0.04390    1.000
    C1       C        0.41110    0.50320    0.39330    1.000
    C2       C        0.37470    0.50900    0.26750    1.000
    H1       H        0.42800    0.42810    0.21840    1.000
    C3       C        0.26710    0.62450    0.21360    1.000
    C4       C        0.16280    0.73020    0.30440    1.000
    C5       C        0.18170    0.71840    0.42710    1.000
    H2       H        0.10660    0.78630    0.48400    1.000
    C6       C        0.30780    0.60970    0.47050    1.000
    C7       C        0.31700    0.60930    0.61390    1.000
    C8       C        0.54500    0.37940    0.43720    1.000
    C9       C        0.26000    0.62760    0.08510    1.000
    C10      C        0.04170    0.86010    0.26000    1.000
    C11      C        0.83580    0.23830    0.88980    1.000
    C12      C        0.95170    0.10590    0.87970    1.000
    H3       H        0.06770    0.09560    0.89370    1.000
    C13      C        0.90480    0.98620    0.84960    1.000
    C14      C        0.74790    0.99880    0.82030    1.000
    C15      C        0.62700    0.13530    0.81930    1.000
    H4       H        0.51890    0.14420    0.79210    1.000
    C16      C        0.66160    0.25250    0.85590    1.000
    C17      C        0.68960    0.88070    0.76630    1.000
    C18      C        0.04280    0.83920    0.84990    1.000
    C19      C        0.53660    0.38800    0.85350    1.000
    C20      C        0.88540    0.35610    0.93800    1.000
