# CIF file generated by openbabel 3.1.0, see https://openbabel.org
data_I
_chemical_name_common 'image0'
_cell_length_a 22.0101
_cell_length_b 16.5266
_cell_length_c 25.5684
_cell_angle_alpha 90
_cell_angle_beta 115.234
_cell_angle_gamma 90
_space_group_name_H-M_alt 'P 1'
_space_group_name_Hall 'P 1'
loop_
    _symmetry_equiv_pos_as_xyz
    x,y,z
loop_
    _atom_site_label
    _atom_site_type_symbol
    _atom_site_fract_x
    _atom_site_fract_y
    _atom_site_fract_z
    _atom_site_occupancy
    Ag1      Ag       0.34427    0.95731    0.36747    1.000
    Ag2      Ag       0.32249    0.25433    0.86691    1.000
    C1       C        0.59770    0.47100    0.99990    1.000
    C2       C        0.77730    0.63810    0.00870    1.000
    H1       H        0.79800    0.63480    0.04890    1.000
    C3       C        0.29780    0.08390    0.50460    1.000
    H2       H        0.31990    0.08780    0.54460    1.000
    C4       C        0.12350    0.25670    0.50100    1.000
    C5       C        0.05970    0.30160    0.46880    1.000
    C6       C        0.50320    0.38430    0.99530    1.000
    H3       H        0.52260    0.38330    0.03550    1.000
    C7       C        0.44410    0.34420    0.96390    1.000
    H4       H        0.42410    0.31640    0.98410    1.000
    C8       C        0.20970    0.22620    0.58670    1.000
    C9       C        0.03270    0.31130    0.41010    1.000
    H5       H        0.05420    0.29010    0.38880    1.000
    C10      C        0.68200    0.55260    0.00600    1.000
    C11      C        0.53340    0.42620    0.96590    1.000
    C12      C        0.23550    0.06430    0.38820    1.000
    H6       H        0.21380    0.05680    0.34840    1.000
    C13      C        0.72030    0.65290    0.89160    1.000
    H7       H        0.70040    0.65780    0.85150    1.000
    C14      C        0.24310    0.23710    0.65050    1.000
    C15      C        0.67900    0.45630    0.18040    1.000
    H8       H        0.63480    0.43910    0.16020    1.000
    C16      C        0.68020    0.50190    0.08700    1.000
    C17      C        0.71490    0.60120    0.97680    1.000
    C18      C        0.23520    0.12110    0.47360    1.000
    C19      C        0.02590    0.33510    0.49880    1.000
    H9       H        0.04320    0.33070    0.53880    1.000
    C20      C        0.20380    0.11000    0.41420    1.000
    H10      H        0.16210    0.13310    0.39230    1.000
    C21      C        0.68640    0.61000    0.91790    1.000
    H11      H        0.64450    0.58750    0.89560    1.000
    C22      C        0.20500    0.17200    0.50410    1.000
    C23      C        0.71240    0.49190    0.15120    1.000
    C24      C        0.97330    0.35300    0.38340    1.000
    H12      H        0.95580    0.36020    0.34360    1.000
    C25      C        0.32540    0.04130    0.47340    1.000
    H13      H        0.36790    0.01900    0.49360    1.000
    C26      C        0.80760    0.68020    0.97850    1.000
    H14      H        0.84910    0.70450    0.99950    1.000
    C27      C        0.96690    0.37480    0.46810    1.000
    H15      H        0.94450    0.39700    0.48840    1.000
    C28      C        0.80680    0.50520    0.24190    1.000
    H16      H        0.85080    0.52240    0.26280    1.000
    C29      C        0.50180    0.42790    0.90630    1.000
    H17      H        0.51920    0.45840    0.88530    1.000
    C30      C        0.44390    0.38330    0.87850    1.000
    H18      H        0.42470    0.38110    0.83840    1.000
    C31      C        0.21530    0.28840    0.67740    1.000
    H19      H        0.17670    0.31780    0.65570    1.000
    C32      C        0.24550    0.29490    0.73620    1.000
    H20      H        0.22660    0.32990    0.75370    1.000
    C33      C        0.71160    0.44660    0.23960    1.000
    H21      H        0.68860    0.42230    0.25870    1.000
    C34      C        0.77810    0.51670    0.18260    1.000
    H22      H        0.80240    0.54030    0.16440    1.000
    C35      C        0.32850    0.20810    0.74360    1.000
    H23      H        0.36800    0.18090    0.76630    1.000
    C36      C        0.30230    0.19850    0.68430    1.000
    H24      H        0.32410    0.16670    0.66760    1.000
    N1       N        0.29540    0.03020    0.41680    1.000
    N2       N        0.93940    0.38360    0.41110    1.000
    N3       N        0.30070    0.25400    0.77010    1.000
    N4       N        0.23790    0.17720    0.56210    1.000
    N5       N        0.14820    0.21050    0.47160    1.000
    N6       N        0.15270    0.26690    0.55830    1.000
    N7       N        0.41380    0.34270    0.90650    1.000
    N8       N        0.77570    0.47120    0.27090    1.000
    N9       N        0.77980    0.68690    0.92130    1.000
    N10      N        0.62300    0.46280    0.05790    1.000
    N11      N        0.71130    0.54960    0.06390    1.000
    N12      N        0.62610    0.51220    0.97240    1.000
    Ag3      Ag       0.84427    0.45731    0.36747    1.000
    Ag4      Ag       0.82249    0.75433    0.86691    1.000
    C37      C        0.09770    0.97100    0.99990    1.000
    C38      C        0.27730    0.13810    0.00870    1.000
    H25      H        0.29800    0.13480    0.04890    1.000
    C39      C        0.79780    0.58390    0.50460    1.000
    H26      H        0.81990    0.58780    0.54460    1.000
    C40      C        0.62350    0.75670    0.50100    1.000
    C41      C        0.55970    0.80160    0.46880    1.000
    C42      C        0.00320    0.88430    0.99530    1.000
    H27      H        0.02260    0.88330    0.03550    1.000
    C43      C        0.94410    0.84420    0.96390    1.000
    H28      H        0.92410    0.81640    0.98410    1.000
    C44      C        0.70970    0.72620    0.58670    1.000
    C45      C        0.53270    0.81130    0.41010    1.000
    H29      H        0.55420    0.79010    0.38880    1.000
    C46      C        0.18200    0.05260    0.00600    1.000
    C47      C        0.03340    0.92620    0.96590    1.000
    C48      C        0.73550    0.56430    0.38820    1.000
    H30      H        0.71380    0.55680    0.34840    1.000
    C49      C        0.22030    0.15290    0.89160    1.000
    H31      H        0.20040    0.15780    0.85150    1.000
    C50      C        0.74310    0.73710    0.65050    1.000
    C51      C        0.17900    0.95630    0.18040    1.000
    H32      H        0.13480    0.93910    0.16020    1.000
    C52      C        0.18020    0.00190    0.08700    1.000
    C53      C        0.21490    0.10120    0.97680    1.000
    C54      C        0.73520    0.62110    0.47360    1.000
    C55      C        0.52590    0.83510    0.49880    1.000
    H33      H        0.54320    0.83070    0.53880    1.000
    C56      C        0.70380    0.61000    0.41420    1.000
    H34      H        0.66210    0.63310    0.39230    1.000
    C57      C        0.18640    0.11000    0.91790    1.000
    H35      H        0.14450    0.08750    0.89560    1.000
    C58      C        0.70500    0.67200    0.50410    1.000
    C59      C        0.21240    0.99190    0.15120    1.000
    C60      C        0.47330    0.85300    0.38340    1.000
    H36      H        0.45580    0.86020    0.34360    1.000
    C61      C        0.82540    0.54130    0.47340    1.000
    H37      H        0.86790    0.51900    0.49360    1.000
    C62      C        0.30760    0.18020    0.97850    1.000
    H38      H        0.34910    0.20450    0.99950    1.000
    C63      C        0.46690    0.87480    0.46810    1.000
    H39      H        0.44450    0.89700    0.48840    1.000
    C64      C        0.30680    0.00520    0.24190    1.000
    H40      H        0.35080    0.02240    0.26280    1.000
    C65      C        0.00180    0.92790    0.90630    1.000
    H41      H        0.01920    0.95840    0.88530    1.000
    C66      C        0.94390    0.88330    0.87850    1.000
    H42      H        0.92470    0.88110    0.83840    1.000
    C67      C        0.71530    0.78840    0.67740    1.000
    H43      H        0.67670    0.81780    0.65570    1.000
    C68      C        0.74550    0.79490    0.73620    1.000
    H44      H        0.72660    0.82990    0.75370    1.000
    C69      C        0.21160    0.94660    0.23960    1.000
    H45      H        0.18860    0.92230    0.25870    1.000
    C70      C        0.27810    0.01670    0.18260    1.000
    H46      H        0.30240    0.04030    0.16440    1.000
    C71      C        0.82850    0.70810    0.74360    1.000
    H47      H        0.86800    0.68090    0.76630    1.000
    C72      C        0.80230    0.69850    0.68430    1.000
    H48      H        0.82410    0.66670    0.66760    1.000
    N13      N        0.79540    0.53020    0.41680    1.000
    N14      N        0.43940    0.88360    0.41110    1.000
    N15      N        0.80070    0.75400    0.77010    1.000
    N16      N        0.73790    0.67720    0.56210    1.000
    N17      N        0.64820    0.71050    0.47160    1.000
    N18      N        0.65270    0.76690    0.55830    1.000
    N19      N        0.91380    0.84270    0.90650    1.000
    N20      N        0.27570    0.97120    0.27090    1.000
    N21      N        0.27980    0.18690    0.92130    1.000
    N22      N        0.12300    0.96280    0.05790    1.000
    N23      N        0.21130    0.04960    0.06390    1.000
    N24      N        0.12610    0.01220    0.97240    1.000
    Ag5      Ag       0.65573    0.95731    0.13253    1.000
    Ag6      Ag       0.67751    0.25433    0.63309    1.000
    C73      C        0.40230    0.47100    0.50010    1.000
    C74      C        0.22270    0.63810    0.49130    1.000
    H49      H        0.20200    0.63480    0.45110    1.000
    C75      C        0.70220    0.08390    0.99540    1.000
    H50      H        0.68010    0.08780    0.95540    1.000
    C76      C        0.87650    0.25670    0.99900    1.000
    C77      C        0.94030    0.30160    0.03120    1.000
    C78      C        0.49680    0.38430    0.50470    1.000
    H51      H        0.47740    0.38330    0.46450    1.000
    C79      C        0.55590    0.34420    0.53610    1.000
    H52      H        0.57590    0.31640    0.51590    1.000
    C80      C        0.79030    0.22620    0.91330    1.000
    C81      C        0.96730    0.31130    0.08990    1.000
    H53      H        0.94580    0.29010    0.11120    1.000
    C82      C        0.31800    0.55260    0.49400    1.000
    C83      C        0.46660    0.42620    0.53410    1.000
    C84      C        0.76450    0.06430    0.11180    1.000
    H54      H        0.78620    0.05680    0.15160    1.000
    C85      C        0.27970    0.65290    0.60840    1.000
    H55      H        0.29960    0.65780    0.64850    1.000
    C86      C        0.75690    0.23710    0.84950    1.000
    C87      C        0.32100    0.45630    0.31960    1.000
    H56      H        0.36520    0.43910    0.33980    1.000
    C88      C        0.31980    0.50190    0.41300    1.000
    C89      C        0.28510    0.60120    0.52320    1.000
    C90      C        0.76480    0.12110    0.02640    1.000
    C91      C        0.97410    0.33510    0.00120    1.000
    H57      H        0.95680    0.33070    0.96120    1.000
    C92      C        0.79620    0.11000    0.08580    1.000
    H58      H        0.83790    0.13310    0.10770    1.000
    C93      C        0.31360    0.61000    0.58210    1.000
    H59      H        0.35550    0.58750    0.60440    1.000
    C94      C        0.79500    0.17200    0.99590    1.000
    C95      C        0.28760    0.49190    0.34880    1.000
    C96      C        0.02670    0.35300    0.11660    1.000
    H60      H        0.04420    0.36020    0.15640    1.000
    C97      C        0.67460    0.04130    0.02660    1.000
    H61      H        0.63210    0.01900    0.00640    1.000
    C98      C        0.19240    0.68020    0.52150    1.000
    H62      H        0.15090    0.70450    0.50050    1.000
    C99      C        0.03310    0.37480    0.03190    1.000
    H63      H        0.05550    0.39700    0.01160    1.000
    C100     C        0.19320    0.50520    0.25810    1.000
    H64      H        0.14920    0.52240    0.23720    1.000
    C101     C        0.49820    0.42790    0.59370    1.000
    H65      H        0.48080    0.45840    0.61470    1.000
    C102     C        0.55610    0.38330    0.62150    1.000
    H66      H        0.57530    0.38110    0.66160    1.000
    C103     C        0.78470    0.28840    0.82260    1.000
    H67      H        0.82330    0.31780    0.84430    1.000
    C104     C        0.75450    0.29490    0.76380    1.000
    H68      H        0.77340    0.32990    0.74630    1.000
    C105     C        0.28840    0.44660    0.26040    1.000
    H69      H        0.31140    0.42230    0.24130    1.000
    C106     C        0.22190    0.51670    0.31740    1.000
    H70      H        0.19760    0.54030    0.33560    1.000
    C107     C        0.67150    0.20810    0.75640    1.000
    H71      H        0.63200    0.18090    0.73370    1.000
    C108     C        0.69770    0.19850    0.81570    1.000
    H72      H        0.67590    0.16670    0.83240    1.000
    N25      N        0.70460    0.03020    0.08320    1.000
    N26      N        0.06060    0.38360    0.08890    1.000
    N27      N        0.69930    0.25400    0.72990    1.000
    N28      N        0.76210    0.17720    0.93790    1.000
    N29      N        0.85180    0.21050    0.02840    1.000
    N30      N        0.84730    0.26690    0.94170    1.000
    N31      N        0.58620    0.34270    0.59350    1.000
    N32      N        0.22430    0.47120    0.22910    1.000
    N33      N        0.22020    0.68690    0.57870    1.000
    N34      N        0.37700    0.46280    0.44210    1.000
    N35      N        0.28870    0.54960    0.43610    1.000
    N36      N        0.37390    0.51220    0.52760    1.000
    Ag7      Ag       0.15573    0.45731    0.13253    1.000
    Ag8      Ag       0.17751    0.75433    0.63309    1.000
    C109     C        0.90230    0.97100    0.50010    1.000
    C110     C        0.72270    0.13810    0.49130    1.000
    H73      H        0.70200    0.13480    0.45110    1.000
    C111     C        0.20220    0.58390    0.99540    1.000
    H74      H        0.18010    0.58780    0.95540    1.000
    C112     C        0.37650    0.75670    0.99900    1.000
    C113     C        0.44030    0.80160    0.03120    1.000
    C114     C        0.99680    0.88430    0.50470    1.000
    H75      H        0.97740    0.88330    0.46450    1.000
    C115     C        0.05590    0.84420    0.53610    1.000
    H76      H        0.07590    0.81640    0.51590    1.000
    C116     C        0.29030    0.72620    0.91330    1.000
    C117     C        0.46730    0.81130    0.08990    1.000
    H77      H        0.44580    0.79010    0.11120    1.000
    C118     C        0.81800    0.05260    0.49400    1.000
    C119     C        0.96660    0.92620    0.53410    1.000
    C120     C        0.26450    0.56430    0.11180    1.000
    H78      H        0.28620    0.55680    0.15160    1.000
    C121     C        0.77970    0.15290    0.60840    1.000
    H79      H        0.79960    0.15780    0.64850    1.000
    C122     C        0.25690    0.73710    0.84950    1.000
    C123     C        0.82100    0.95630    0.31960    1.000
    H80      H        0.86520    0.93910    0.33980    1.000
    C124     C        0.81980    0.00190    0.41300    1.000
    C125     C        0.78510    0.10120    0.52320    1.000
    C126     C        0.26480    0.62110    0.02640    1.000
    C127     C        0.47410    0.83510    0.00120    1.000
    H81      H        0.45680    0.83070    0.96120    1.000
    C128     C        0.29620    0.61000    0.08580    1.000
    H82      H        0.33790    0.63310    0.10770    1.000
    C129     C        0.81360    0.11000    0.58210    1.000
    H83      H        0.85550    0.08750    0.60440    1.000
    C130     C        0.29500    0.67200    0.99590    1.000
    C131     C        0.78760    0.99190    0.34880    1.000
    C132     C        0.52670    0.85300    0.11660    1.000
    H84      H        0.54420    0.86020    0.15640    1.000
    C133     C        0.17460    0.54130    0.02660    1.000
    H85      H        0.13210    0.51900    0.00640    1.000
    C134     C        0.69240    0.18020    0.52150    1.000
    H86      H        0.65090    0.20450    0.50050    1.000
    C135     C        0.53310    0.87480    0.03190    1.000
    H87      H        0.55550    0.89700    0.01160    1.000
    C136     C        0.69320    0.00520    0.25810    1.000
    H88      H        0.64920    0.02240    0.23720    1.000
    C137     C        0.99820    0.92790    0.59370    1.000
    H89      H        0.98080    0.95840    0.61470    1.000
    C138     C        0.05610    0.88330    0.62150    1.000
    H90      H        0.07530    0.88110    0.66160    1.000
    C139     C        0.28470    0.78840    0.82260    1.000
    H91      H        0.32330    0.81780    0.84430    1.000
    C140     C        0.25450    0.79490    0.76380    1.000
    H92      H        0.27340    0.82990    0.74630    1.000
    C141     C        0.78840    0.94660    0.26040    1.000
    H93      H        0.81140    0.92230    0.24130    1.000
    C142     C        0.72190    0.01670    0.31740    1.000
    H94      H        0.69760    0.04030    0.33560    1.000
    C143     C        0.17150    0.70810    0.75640    1.000
    H95      H        0.13200    0.68090    0.73370    1.000
    C144     C        0.19770    0.69850    0.81570    1.000
    H96      H        0.17590    0.66670    0.83240    1.000
    N37      N        0.20460    0.53020    0.08320    1.000
    N38      N        0.56060    0.88360    0.08890    1.000
    N39      N        0.19930    0.75400    0.72990    1.000
    N40      N        0.26210    0.67720    0.93790    1.000
    N41      N        0.35180    0.71050    0.02840    1.000
    N42      N        0.34730    0.76690    0.94170    1.000
    N43      N        0.08620    0.84270    0.59350    1.000
    N44      N        0.72430    0.97120    0.22910    1.000
    N45      N        0.72020    0.18690    0.57870    1.000
    N46      N        0.87700    0.96280    0.44210    1.000
    N47      N        0.78870    0.04960    0.43610    1.000
    N48      N        0.87390    0.01220    0.52760    1.000
    Ag9      Ag       0.65573    0.04269    0.63253    1.000
    Ag10     Ag       0.67751    0.74567    0.13309    1.000
    C145     C        0.40230    0.52900    0.00010    1.000
    C146     C        0.22270    0.36190    0.99130    1.000
    H97      H        0.20200    0.36520    0.95110    1.000
    C147     C        0.70220    0.91610    0.49540    1.000
    H98      H        0.68010    0.91220    0.45540    1.000
    C148     C        0.87650    0.74330    0.49900    1.000
    C149     C        0.94030    0.69840    0.53120    1.000
    C150     C        0.49680    0.61570    0.00470    1.000
    H99      H        0.47740    0.61670    0.96450    1.000
    C151     C        0.55590    0.65580    0.03610    1.000
    H100     H        0.57590    0.68360    0.01590    1.000
    C152     C        0.79030    0.77380    0.41330    1.000
    C153     C        0.96730    0.68870    0.58990    1.000
    H101     H        0.94580    0.70990    0.61120    1.000
    C154     C        0.31800    0.44740    0.99400    1.000
    C155     C        0.46660    0.57380    0.03410    1.000
    C156     C        0.76450    0.93570    0.61180    1.000
    H102     H        0.78620    0.94320    0.65160    1.000
    C157     C        0.27970    0.34710    0.10840    1.000
    H103     H        0.29960    0.34220    0.14850    1.000
    C158     C        0.75690    0.76290    0.34950    1.000
    C159     C        0.32100    0.54370    0.81960    1.000
    H104     H        0.36520    0.56090    0.83980    1.000
    C160     C        0.31980    0.49810    0.91300    1.000
    C161     C        0.28510    0.39880    0.02320    1.000
    C162     C        0.76480    0.87890    0.52640    1.000
    C163     C        0.97410    0.66490    0.50120    1.000
    H105     H        0.95680    0.66930    0.46120    1.000
    C164     C        0.79620    0.89000    0.58580    1.000
    H106     H        0.83790    0.86690    0.60770    1.000
    C165     C        0.31360    0.39000    0.08210    1.000
    H107     H        0.35550    0.41250    0.10440    1.000
    C166     C        0.79500    0.82800    0.49590    1.000
    C167     C        0.28760    0.50810    0.84880    1.000
    C168     C        0.02670    0.64700    0.61660    1.000
    H108     H        0.04420    0.63980    0.65640    1.000
    C169     C        0.67460    0.95870    0.52660    1.000
    H109     H        0.63210    0.98100    0.50640    1.000
    C170     C        0.19240    0.31980    0.02150    1.000
    H110     H        0.15090    0.29550    0.00050    1.000
    C171     C        0.03310    0.62520    0.53190    1.000
    H111     H        0.05550    0.60300    0.51160    1.000
    C172     C        0.19320    0.49480    0.75810    1.000
    H112     H        0.14920    0.47760    0.73720    1.000
    C173     C        0.49820    0.57210    0.09370    1.000
    H113     H        0.48080    0.54160    0.11470    1.000
    C174     C        0.55610    0.61670    0.12150    1.000
    H114     H        0.57530    0.61890    0.16160    1.000
    C175     C        0.78470    0.71160    0.32260    1.000
    H115     H        0.82330    0.68220    0.34430    1.000
    C176     C        0.75450    0.70510    0.26380    1.000
    H116     H        0.77340    0.67010    0.24630    1.000
    C177     C        0.28840    0.55340    0.76040    1.000
    H117     H        0.31140    0.57770    0.74130    1.000
    C178     C        0.22190    0.48330    0.81740    1.000
    H118     H        0.19760    0.45970    0.83560    1.000
    C179     C        0.67150    0.79190    0.25640    1.000
    H119     H        0.63200    0.81910    0.23370    1.000
    C180     C        0.69770    0.80150    0.31570    1.000
    H120     H        0.67590    0.83330    0.33240    1.000
    N49      N        0.70460    0.96980    0.58320    1.000
    N50      N        0.06060    0.61640    0.58890    1.000
    N51      N        0.69930    0.74600    0.22990    1.000
    N52      N        0.76210    0.82280    0.43790    1.000
    N53      N        0.85180    0.78950    0.52840    1.000
    N54      N        0.84730    0.73310    0.44170    1.000
    N55      N        0.58620    0.65730    0.09350    1.000
    N56      N        0.22430    0.52880    0.72910    1.000
    N57      N        0.22020    0.31310    0.07870    1.000
    N58      N        0.37700    0.53720    0.94210    1.000
    N59      N        0.28870    0.45040    0.93610    1.000
    N60      N        0.37390    0.48780    0.02760    1.000
    Ag11     Ag       0.15573    0.54269    0.63253    1.000
    Ag12     Ag       0.17751    0.24567    0.13309    1.000
    C181     C        0.90230    0.02900    0.00010    1.000
    C182     C        0.72270    0.86190    0.99130    1.000
    H121     H        0.70200    0.86520    0.95110    1.000
    C183     C        0.20220    0.41610    0.49540    1.000
    H122     H        0.18010    0.41220    0.45540    1.000
    C184     C        0.37650    0.24330    0.49900    1.000
    C185     C        0.44030    0.19840    0.53120    1.000
    C186     C        0.99680    0.11570    0.00470    1.000
    H123     H        0.97740    0.11670    0.96450    1.000
    C187     C        0.05590    0.15580    0.03610    1.000
    H124     H        0.07590    0.18360    0.01590    1.000
    C188     C        0.29030    0.27380    0.41330    1.000
    C189     C        0.46730    0.18870    0.58990    1.000
    H125     H        0.44580    0.20990    0.61120    1.000
    C190     C        0.81800    0.94740    0.99400    1.000
    C191     C        0.96660    0.07380    0.03410    1.000
    C192     C        0.26450    0.43570    0.61180    1.000
    H126     H        0.28620    0.44320    0.65160    1.000
    C193     C        0.77970    0.84710    0.10840    1.000
    H127     H        0.79960    0.84220    0.14850    1.000
    C194     C        0.25690    0.26290    0.34950    1.000
    C195     C        0.82100    0.04370    0.81960    1.000
    H128     H        0.86520    0.06090    0.83980    1.000
    C196     C        0.81980    0.99810    0.91300    1.000
    C197     C        0.78510    0.89880    0.02320    1.000
    C198     C        0.26480    0.37890    0.52640    1.000
    C199     C        0.47410    0.16490    0.50120    1.000
    H129     H        0.45680    0.16930    0.46120    1.000
    C200     C        0.29620    0.39000    0.58580    1.000
    H130     H        0.33790    0.36690    0.60770    1.000
    C201     C        0.81360    0.89000    0.08210    1.000
    H131     H        0.85550    0.91250    0.10440    1.000
    C202     C        0.29500    0.32800    0.49590    1.000
    C203     C        0.78760    0.00810    0.84880    1.000
    C204     C        0.52670    0.14700    0.61660    1.000
    H132     H        0.54420    0.13980    0.65640    1.000
    C205     C        0.17460    0.45870    0.52660    1.000
    H133     H        0.13210    0.48100    0.50640    1.000
    C206     C        0.69240    0.81980    0.02150    1.000
    H134     H        0.65090    0.79550    0.00050    1.000
    C207     C        0.53310    0.12520    0.53190    1.000
    H135     H        0.55550    0.10300    0.51160    1.000
    C208     C        0.69320    0.99480    0.75810    1.000
    H136     H        0.64920    0.97760    0.73720    1.000
    C209     C        0.99820    0.07210    0.09370    1.000
    H137     H        0.98080    0.04160    0.11470    1.000
    C210     C        0.05610    0.11670    0.12150    1.000
    H138     H        0.07530    0.11890    0.16160    1.000
    C211     C        0.28470    0.21160    0.32260    1.000
    H139     H        0.32330    0.18220    0.34430    1.000
    C212     C        0.25450    0.20510    0.26380    1.000
    H140     H        0.27340    0.17010    0.24630    1.000
    C213     C        0.78840    0.05340    0.76040    1.000
    H141     H        0.81140    0.07770    0.74130    1.000
    C214     C        0.72190    0.98330    0.81740    1.000
    H142     H        0.69760    0.95970    0.83560    1.000
    C215     C        0.17150    0.29190    0.25640    1.000
    H143     H        0.13200    0.31910    0.23370    1.000
    C216     C        0.19770    0.30150    0.31570    1.000
    H144     H        0.17590    0.33330    0.33240    1.000
    N61      N        0.20460    0.46980    0.58320    1.000
    N62      N        0.56060    0.11640    0.58890    1.000
    N63      N        0.19930    0.24600    0.22990    1.000
    N64      N        0.26210    0.32280    0.43790    1.000
    N65      N        0.35180    0.28950    0.52840    1.000
    N66      N        0.34730    0.23310    0.44170    1.000
    N67      N        0.08620    0.15730    0.09350    1.000
    N68      N        0.72430    0.02880    0.72910    1.000
    N69      N        0.72020    0.81310    0.07870    1.000
    N70      N        0.87700    0.03720    0.94210    1.000
    N71      N        0.78870    0.95040    0.93610    1.000
    N72      N        0.87390    0.98780    0.02760    1.000
    Ag13     Ag       0.34427    0.04269    0.86747    1.000
    Ag14     Ag       0.32249    0.74567    0.36691    1.000
    C217     C        0.59770    0.52900    0.49990    1.000
    C218     C        0.77730    0.36190    0.50870    1.000
    H145     H        0.79800    0.36520    0.54890    1.000
    C219     C        0.29780    0.91610    0.00460    1.000
    H146     H        0.31990    0.91220    0.04460    1.000
    C220     C        0.12350    0.74330    0.00100    1.000
    C221     C        0.05970    0.69840    0.96880    1.000
    C222     C        0.50320    0.61570    0.49530    1.000
    H147     H        0.52260    0.61670    0.53550    1.000
    C223     C        0.44410    0.65580    0.46390    1.000
    H148     H        0.42410    0.68360    0.48410    1.000
    C224     C        0.20970    0.77380    0.08670    1.000
    C225     C        0.03270    0.68870    0.91010    1.000
    H149     H        0.05420    0.70990    0.88880    1.000
    C226     C        0.68200    0.44740    0.50600    1.000
    C227     C        0.53340    0.57380    0.46590    1.000
    C228     C        0.23550    0.93570    0.88820    1.000
    H150     H        0.21380    0.94320    0.84840    1.000
    C229     C        0.72030    0.34710    0.39160    1.000
    H151     H        0.70040    0.34220    0.35150    1.000
    C230     C        0.24310    0.76290    0.15050    1.000
    C231     C        0.67900    0.54370    0.68040    1.000
    H152     H        0.63480    0.56090    0.66020    1.000
    C232     C        0.68020    0.49810    0.58700    1.000
    C233     C        0.71490    0.39880    0.47680    1.000
    C234     C        0.23520    0.87890    0.97360    1.000
    C235     C        0.02590    0.66490    0.99880    1.000
    H153     H        0.04320    0.66930    0.03880    1.000
    C236     C        0.20380    0.89000    0.91420    1.000
    H154     H        0.16210    0.86690    0.89230    1.000
    C237     C        0.68640    0.39000    0.41790    1.000
    H155     H        0.64450    0.41250    0.39560    1.000
    C238     C        0.20500    0.82800    0.00410    1.000
    C239     C        0.71240    0.50810    0.65120    1.000
    C240     C        0.97330    0.64700    0.88340    1.000
    H156     H        0.95580    0.63980    0.84360    1.000
    C241     C        0.32540    0.95870    0.97340    1.000
    H157     H        0.36790    0.98100    0.99360    1.000
    C242     C        0.80760    0.31980    0.47850    1.000
    H158     H        0.84910    0.29550    0.49950    1.000
    C243     C        0.96690    0.62520    0.96810    1.000
    H159     H        0.94450    0.60300    0.98840    1.000
    C244     C        0.80680    0.49480    0.74190    1.000
    H160     H        0.85080    0.47760    0.76280    1.000
    C245     C        0.50180    0.57210    0.40630    1.000
    H161     H        0.51920    0.54160    0.38530    1.000
    C246     C        0.44390    0.61670    0.37850    1.000
    H162     H        0.42470    0.61890    0.33840    1.000
    C247     C        0.21530    0.71160    0.17740    1.000
    H163     H        0.17670    0.68220    0.15570    1.000
    C248     C        0.24550    0.70510    0.23620    1.000
    H164     H        0.22660    0.67010    0.25370    1.000
    C249     C        0.71160    0.55340    0.73960    1.000
    H165     H        0.68860    0.57770    0.75870    1.000
    C250     C        0.77810    0.48330    0.68260    1.000
    H166     H        0.80240    0.45970    0.66440    1.000
    C251     C        0.32850    0.79190    0.24360    1.000
    H167     H        0.36800    0.81910    0.26630    1.000
    C252     C        0.30230    0.80150    0.18430    1.000
    H168     H        0.32410    0.83330    0.16760    1.000
    N73      N        0.29540    0.96980    0.91680    1.000
    N74      N        0.93940    0.61640    0.91110    1.000
    N75      N        0.30070    0.74600    0.27010    1.000
    N76      N        0.23790    0.82280    0.06210    1.000
    N77      N        0.14820    0.78950    0.97160    1.000
    N78      N        0.15270    0.73310    0.05830    1.000
    N79      N        0.41380    0.65730    0.40650    1.000
    N80      N        0.77570    0.52880    0.77090    1.000
    N81      N        0.77980    0.31310    0.42130    1.000
    N82      N        0.62300    0.53720    0.55790    1.000
    N83      N        0.71130    0.45040    0.56390    1.000
    N84      N        0.62610    0.48780    0.47240    1.000
    Ag15     Ag       0.84427    0.54269    0.86747    1.000
    Ag16     Ag       0.82249    0.24567    0.36691    1.000
    C253     C        0.09770    0.02900    0.49990    1.000
    C254     C        0.27730    0.86190    0.50870    1.000
    H169     H        0.29800    0.86520    0.54890    1.000
    C255     C        0.79780    0.41610    0.00460    1.000
    H170     H        0.81990    0.41220    0.04460    1.000
    C256     C        0.62350    0.24330    0.00100    1.000
    C257     C        0.55970    0.19840    0.96880    1.000
    C258     C        0.00320    0.11570    0.49530    1.000
    H171     H        0.02260    0.11670    0.53550    1.000
    C259     C        0.94410    0.15580    0.46390    1.000
    H172     H        0.92410    0.18360    0.48410    1.000
    C260     C        0.70970    0.27380    0.08670    1.000
    C261     C        0.53270    0.18870    0.91010    1.000
    H173     H        0.55420    0.20990    0.88880    1.000
    C262     C        0.18200    0.94740    0.50600    1.000
    C263     C        0.03340    0.07380    0.46590    1.000
    C264     C        0.73550    0.43570    0.88820    1.000
    H174     H        0.71380    0.44320    0.84840    1.000
    C265     C        0.22030    0.84710    0.39160    1.000
    H175     H        0.20040    0.84220    0.35150    1.000
    C266     C        0.74310    0.26290    0.15050    1.000
    C267     C        0.17900    0.04370    0.68040    1.000
    H176     H        0.13480    0.06090    0.66020    1.000
    C268     C        0.18020    0.99810    0.58700    1.000
    C269     C        0.21490    0.89880    0.47680    1.000
    C270     C        0.73520    0.37890    0.97360    1.000
    C271     C        0.52590    0.16490    0.99880    1.000
    H177     H        0.54320    0.16930    0.03880    1.000
    C272     C        0.70380    0.39000    0.91420    1.000
    H178     H        0.66210    0.36690    0.89230    1.000
    C273     C        0.18640    0.89000    0.41790    1.000
    H179     H        0.14450    0.91250    0.39560    1.000
    C274     C        0.70500    0.32800    0.00410    1.000
    C275     C        0.21240    0.00810    0.65120    1.000
    C276     C        0.47330    0.14700    0.88340    1.000
    H180     H        0.45580    0.13980    0.84360    1.000
    C277     C        0.82540    0.45870    0.97340    1.000
    H181     H        0.86790    0.48100    0.99360    1.000
    C278     C        0.30760    0.81980    0.47850    1.000
    H182     H        0.34910    0.79550    0.49950    1.000
    C279     C        0.46690    0.12520    0.96810    1.000
    H183     H        0.44450    0.10300    0.98840    1.000
    C280     C        0.30680    0.99480    0.74190    1.000
    H184     H        0.35080    0.97760    0.76280    1.000
    C281     C        0.00180    0.07210    0.40630    1.000
    H185     H        0.01920    0.04160    0.38530    1.000
    C282     C        0.94390    0.11670    0.37850    1.000
    H186     H        0.92470    0.11890    0.33840    1.000
    C283     C        0.71530    0.21160    0.17740    1.000
    H187     H        0.67670    0.18220    0.15570    1.000
    C284     C        0.74550    0.20510    0.23620    1.000
    H188     H        0.72660    0.17010    0.25370    1.000
    C285     C        0.21160    0.05340    0.73960    1.000
    H189     H        0.18860    0.07770    0.75870    1.000
    C286     C        0.27810    0.98330    0.68260    1.000
    H190     H        0.30240    0.95970    0.66440    1.000
    C287     C        0.82850    0.29190    0.24360    1.000
    H191     H        0.86800    0.31910    0.26630    1.000
    C288     C        0.80230    0.30150    0.18430    1.000
    H192     H        0.82410    0.33330    0.16760    1.000
    N85      N        0.79540    0.46980    0.91680    1.000
    N86      N        0.43940    0.11640    0.91110    1.000
    N87      N        0.80070    0.24600    0.27010    1.000
    N88      N        0.73790    0.32280    0.06210    1.000
    N89      N        0.64820    0.28950    0.97160    1.000
    N90      N        0.65270    0.23310    0.05830    1.000
    N91      N        0.91380    0.15730    0.40650    1.000
    N92      N        0.27570    0.02880    0.77090    1.000
    N93      N        0.27980    0.81310    0.42130    1.000
    N94      N        0.12300    0.03720    0.55790    1.000
    N95      N        0.21130    0.95040    0.56390    1.000
    N96      N        0.12610    0.98780    0.47240    1.000
