# CIF file generated by openbabel 3.1.0, see https://openbabel.org
data_I
_chemical_name_common 'image0'
_cell_length_a 17.7992
_cell_length_b 17.7992
_cell_length_c 12.7145
_cell_angle_alpha 90
_cell_angle_beta 90
_cell_angle_gamma 120
_space_group_name_H-M_alt 'P 1'
_space_group_name_Hall 'P 1'
loop_
    _symmetry_equiv_pos_as_xyz
    x,y,z
loop_
    _atom_site_label
    _atom_site_type_symbol
    _atom_site_fract_x
    _atom_site_fract_y
    _atom_site_fract_z
    _atom_site_occupancy
    Cu1      Cu       0.13680    0.55380    0.26620    1.000
    Cu2      Cu       0.13770    0.55480    0.00411    1.000
    O1       O        0.17670    0.53400    0.12900    1.000
    N1       N        0.08880    0.59510    0.36500    1.000
    N2       N        0.89840    0.40160    0.38940    1.000
    O2       O        0.23480    0.67470    0.26950    1.000
    O3       O        0.02320    0.44810    0.28300    1.000
    O4       O        0.29420    0.80320    0.36180    1.000
    O5       O        0.75990    0.32450    0.50000    1.000
    O6       O        0.98010    0.56100    0.48600    1.000
    O7       O        0.71710    0.20190    0.42670    1.000
    C1       C        0.23610    0.72400    0.33800    1.000
    C2       C        0.14500    0.69500    0.39800    1.000
    H1       H        0.15320    0.70130    0.47620    1.000
    C3       C        0.98100    0.45370    0.36000    1.000
    C4       C        0.02100    0.53900    0.41700    1.000
    C5       C        0.77500    0.27500    0.43100    1.000
    C6       C        0.84850    0.31630    0.36300    1.000
    H2       H        0.82060    0.32150    0.29690    1.000
    C7       C        0.09400    0.73800    0.36000    1.000
    H3       H        0.03690    0.71010    0.39600    1.000
    H4       H        0.12550    0.79970    0.38130    1.000
    C8       C        0.08000    0.73300    0.24800    1.000
    H5       H        0.13510    0.78050    0.21990    1.000
    H6       H        0.03740    0.75320    0.23890    1.000
    C9       C        0.10800    0.75300    0.06700    1.000
    H7       H        0.10820    0.73920    0.99240    1.000
    H8       H        0.16830    0.78570    0.09240    1.000
    H9       H        0.08020    0.78780    0.07620    1.000
    C10      C        0.90480    0.27690    0.31680    1.000
    H10      H        0.95100    0.32540    0.27590    1.000
    H11      H        0.86630    0.23430    0.26370    1.000
    C11      C        0.95410    0.23030    0.37070    1.000
    H12      H        0.01280    0.28200    0.37530    1.000
    H13      H        0.95740    0.19940    0.30770    1.000
    C12      C        0.02600    0.12400    0.38800    1.000
    H14      H        0.03770    0.08740    0.43490    1.000
    H15      H        0.08070    0.17190    0.36180    1.000
    H16      H        0.99000    0.08950    0.32920    1.000
    S1       S        0.04570    0.64610    0.14700    1.000
    S2       S        0.96700    0.16890    0.46310    1.000
    Cu3      Cu       0.44620    0.58300    0.26620    1.000
    Cu4      Cu       0.44520    0.58290    0.00411    1.000
    O8       O        0.46600    0.64270    0.12900    1.000
    N3       N        0.40490    0.49370    0.36500    1.000
    N4       N        0.59840    0.49680    0.38940    1.000
    O9       O        0.32530    0.56010    0.26950    1.000
    O10      O        0.55190    0.57510    0.28300    1.000
    O11      O        0.19680    0.49100    0.36180    1.000
    O12      O        0.67550    0.43540    0.50000    1.000
    O13      O        0.43900    0.41910    0.48600    1.000
    O14      O        0.79810    0.51520    0.42670    1.000
    C13      C        0.27600    0.51210    0.33800    1.000
    C14      C        0.30500    0.45000    0.39800    1.000
    H17      H        0.29870    0.45190    0.47620    1.000
    C15      C        0.54630    0.52730    0.36000    1.000
    C16      C        0.46100    0.48200    0.41700    1.000
    C17      C        0.72500    0.50000    0.43100    1.000
    C18      C        0.68370    0.53220    0.36300    1.000
    H18      H        0.67850    0.49910    0.29690    1.000
    C19      C        0.26200    0.35600    0.36000    1.000
    H19      H        0.28990    0.32680    0.39600    1.000
    H20      H        0.20030    0.32580    0.38130    1.000
    C20      C        0.26700    0.34700    0.24800    1.000
    H21      H        0.21950    0.35460    0.21990    1.000
    H22      H        0.24680    0.28420    0.23890    1.000
    C21      C        0.24700    0.35500    0.06700    1.000
    H23      H        0.26080    0.36900    0.99240    1.000
    H24      H        0.21430    0.38260    0.09240    1.000
    H25      H        0.21220    0.29240    0.07620    1.000
    C22      C        0.72310    0.62790    0.31680    1.000
    H26      H        0.67460    0.62560    0.27590    1.000
    H27      H        0.76570    0.63200    0.26370    1.000
    C23      C        0.76970    0.72380    0.37070    1.000
    H28      H        0.71800    0.73080    0.37530    1.000
    H29      H        0.80060    0.75800    0.30770    1.000
    C24      C        0.87600    0.90200    0.38800    1.000
    H30      H        0.91260    0.95030    0.43490    1.000
    H31      H        0.82810    0.90880    0.36180    1.000
    H32      H        0.91050    0.90050    0.32920    1.000
    S3       S        0.35390    0.39960    0.14700    1.000
    S4       S        0.83110    0.79810    0.46310    1.000
    Cu5      Cu       0.41700    0.86320    0.26620    1.000
    Cu6      Cu       0.41710    0.86230    0.00411    1.000
    O15      O        0.35730    0.82330    0.12900    1.000
    N5       N        0.50630    0.91120    0.36500    1.000
    N6       N        0.50320    0.10160    0.38940    1.000
    O16      O        0.43990    0.76520    0.26950    1.000
    O17      O        0.42490    0.97680    0.28300    1.000
    O18      O        0.50900    0.70580    0.36180    1.000
    O19      O        0.56460    0.24010    0.50000    1.000
    O20      O        0.58090    0.01990    0.48600    1.000
    O21      O        0.48480    0.28290    0.42670    1.000
    C25      C        0.48790    0.76390    0.33800    1.000
    C26      C        0.55000    0.85500    0.39800    1.000
    H33      H        0.54810    0.84680    0.47620    1.000
    C27      C        0.47270    0.01900    0.36000    1.000
    C28      C        0.51800    0.97900    0.41700    1.000
    C29      C        0.50000    0.22500    0.43100    1.000
    C30      C        0.46780    0.15150    0.36300    1.000
    H34      H        0.50090    0.17940    0.29690    1.000
    C31      C        0.64400    0.90600    0.36000    1.000
    H35      H        0.67320    0.96310    0.39600    1.000
    H36      H        0.67420    0.87450    0.38130    1.000
    C32      C        0.65300    0.92000    0.24800    1.000
    H37      H        0.64540    0.86490    0.21990    1.000
    H38      H        0.71580    0.96260    0.23890    1.000
    C33      C        0.64500    0.89200    0.06700    1.000
    H39      H        0.63100    0.89180    0.99240    1.000
    H40      H        0.61740    0.83170    0.09240    1.000
    H41      H        0.70760    0.91980    0.07620    1.000
    C34      C        0.37210    0.09520    0.31680    1.000
    H42      H        0.37440    0.04900    0.27590    1.000
    H43      H        0.36800    0.13370    0.26370    1.000
    C35      C        0.27620    0.04590    0.37070    1.000
    H44      H        0.26920    0.98720    0.37530    1.000
    H45      H        0.24200    0.04260    0.30770    1.000
    C36      C        0.09800    0.97400    0.38800    1.000
    H46      H        0.04970    0.96230    0.43490    1.000
    H47      H        0.09120    0.91930    0.36180    1.000
    H48      H        0.09950    0.01000    0.32920    1.000
    S5       S        0.60040    0.95430    0.14700    1.000
    S6       S        0.20190    0.03300    0.46310    1.000
    Cu7      Cu       0.86320    0.44620    0.76620    1.000
    Cu8      Cu       0.86230    0.44520    0.50411    1.000
    O22      O        0.82330    0.46600    0.62900    1.000
    N7       N        0.91120    0.40490    0.86500    1.000
    N8       N        0.10160    0.59840    0.88940    1.000
    O23      O        0.76520    0.32530    0.76950    1.000
    O24      O        0.97680    0.55190    0.78300    1.000
    O25      O        0.70580    0.19680    0.86180    1.000
    O26      O        0.24010    0.67550    0.00000    1.000
    O27      O        0.01990    0.43900    0.98600    1.000
    O28      O        0.28290    0.79810    0.92670    1.000
    C37      C        0.76390    0.27600    0.83800    1.000
    C38      C        0.85500    0.30500    0.89800    1.000
    H49      H        0.84680    0.29870    0.97620    1.000
    C39      C        0.01900    0.54630    0.86000    1.000
    C40      C        0.97900    0.46100    0.91700    1.000
    C41      C        0.22500    0.72500    0.93100    1.000
    C42      C        0.15150    0.68370    0.86300    1.000
    H50      H        0.17940    0.67850    0.79690    1.000
    C43      C        0.90600    0.26200    0.86000    1.000
    H51      H        0.96310    0.28990    0.89600    1.000
    H52      H        0.87450    0.20030    0.88130    1.000
    C44      C        0.92000    0.26700    0.74800    1.000
    H53      H        0.86490    0.21950    0.71990    1.000
    H54      H        0.96260    0.24680    0.73890    1.000
    C45      C        0.89200    0.24700    0.56700    1.000
    H55      H        0.89180    0.26080    0.49240    1.000
    H56      H        0.83170    0.21430    0.59240    1.000
    H57      H        0.91980    0.21220    0.57620    1.000
    C46      C        0.09520    0.72310    0.81680    1.000
    H58      H        0.04900    0.67460    0.77590    1.000
    H59      H        0.13370    0.76570    0.76370    1.000
    C47      C        0.04590    0.76970    0.87070    1.000
    H60      H        0.98720    0.71800    0.87530    1.000
    H61      H        0.04260    0.80060    0.80770    1.000
    C48      C        0.97400    0.87600    0.88800    1.000
    H62      H        0.96230    0.91260    0.93490    1.000
    H63      H        0.91930    0.82810    0.86180    1.000
    H64      H        0.01000    0.91050    0.82920    1.000
    S7       S        0.95430    0.35390    0.64700    1.000
    S8       S        0.03300    0.83110    0.96310    1.000
    Cu9      Cu       0.55380    0.41700    0.76620    1.000
    Cu10     Cu       0.55480    0.41710    0.50411    1.000
    O29      O        0.53400    0.35730    0.62900    1.000
    N9       N        0.59510    0.50630    0.86500    1.000
    N10      N        0.40160    0.50320    0.88940    1.000
    O30      O        0.67470    0.43990    0.76950    1.000
    O31      O        0.44810    0.42490    0.78300    1.000
    O32      O        0.80320    0.50900    0.86180    1.000
    O33      O        0.32450    0.56460    0.00000    1.000
    O34      O        0.56100    0.58090    0.98600    1.000
    O35      O        0.20190    0.48480    0.92670    1.000
    C49      C        0.72400    0.48790    0.83800    1.000
    C50      C        0.69500    0.55000    0.89800    1.000
    H65      H        0.70130    0.54810    0.97620    1.000
    C51      C        0.45370    0.47270    0.86000    1.000
    C52      C        0.53900    0.51800    0.91700    1.000
    C53      C        0.27500    0.50000    0.93100    1.000
    C54      C        0.31630    0.46780    0.86300    1.000
    H66      H        0.32150    0.50090    0.79690    1.000
    C55      C        0.73800    0.64400    0.86000    1.000
    H67      H        0.71010    0.67320    0.89600    1.000
    H68      H        0.79970    0.67420    0.88130    1.000
    C56      C        0.73300    0.65300    0.74800    1.000
    H69      H        0.78050    0.64540    0.71990    1.000
    H70      H        0.75320    0.71580    0.73890    1.000
    C57      C        0.75300    0.64500    0.56700    1.000
    H71      H        0.73920    0.63100    0.49240    1.000
    H72      H        0.78570    0.61740    0.59240    1.000
    H73      H        0.78780    0.70760    0.57620    1.000
    C58      C        0.27690    0.37210    0.81680    1.000
    H74      H        0.32540    0.37440    0.77590    1.000
    H75      H        0.23430    0.36800    0.76370    1.000
    C59      C        0.23030    0.27620    0.87070    1.000
    H76      H        0.28200    0.26920    0.87530    1.000
    H77      H        0.19940    0.24200    0.80770    1.000
    C60      C        0.12400    0.09800    0.88800    1.000
    H78      H        0.08740    0.04970    0.93490    1.000
    H79      H        0.17190    0.09120    0.86180    1.000
    H80      H        0.08950    0.09950    0.82920    1.000
    S9       S        0.64610    0.60040    0.64700    1.000
    S10      S        0.16890    0.20190    0.96310    1.000
    Cu11     Cu       0.58300    0.13680    0.76620    1.000
    Cu12     Cu       0.58290    0.13770    0.50411    1.000
    O36      O        0.64270    0.17670    0.62900    1.000
    N11      N        0.49370    0.08880    0.86500    1.000
    N12      N        0.49680    0.89840    0.88940    1.000
    O37      O        0.56010    0.23480    0.76950    1.000
    O38      O        0.57510    0.02320    0.78300    1.000
    O39      O        0.49100    0.29420    0.86180    1.000
    O40      O        0.43540    0.75990    0.00000    1.000
    O41      O        0.41910    0.98010    0.98600    1.000
    O42      O        0.51520    0.71710    0.92670    1.000
    C61      C        0.51210    0.23610    0.83800    1.000
    C62      C        0.45000    0.14500    0.89800    1.000
    H81      H        0.45190    0.15320    0.97620    1.000
    C63      C        0.52730    0.98100    0.86000    1.000
    C64      C        0.48200    0.02100    0.91700    1.000
    C65      C        0.50000    0.77500    0.93100    1.000
    C66      C        0.53220    0.84850    0.86300    1.000
    H82      H        0.49910    0.82060    0.79690    1.000
    C67      C        0.35600    0.09400    0.86000    1.000
    H83      H        0.32680    0.03690    0.89600    1.000
    H84      H        0.32580    0.12550    0.88130    1.000
    C68      C        0.34700    0.08000    0.74800    1.000
    H85      H        0.35460    0.13510    0.71990    1.000
    H86      H        0.28420    0.03740    0.73890    1.000
    C69      C        0.35500    0.10800    0.56700    1.000
    H87      H        0.36900    0.10820    0.49240    1.000
    H88      H        0.38260    0.16830    0.59240    1.000
    H89      H        0.29240    0.08020    0.57620    1.000
    C70      C        0.62790    0.90480    0.81680    1.000
    H90      H        0.62560    0.95100    0.77590    1.000
    H91      H        0.63200    0.86630    0.76370    1.000
    C71      C        0.72380    0.95410    0.87070    1.000
    H92      H        0.73080    0.01280    0.87530    1.000
    H93      H        0.75800    0.95740    0.80770    1.000
    C72      C        0.90200    0.02600    0.88800    1.000
    H94      H        0.95030    0.03770    0.93490    1.000
    H95      H        0.90880    0.08070    0.86180    1.000
    H96      H        0.90050    0.99000    0.82920    1.000
    S11      S        0.39960    0.04570    0.64700    1.000
    S12      S        0.79810    0.96700    0.96310    1.000
    Ca1      Ca       0.33333    0.66667    0.13460    1.000
    Ca2      Ca       0.66667    0.33333    0.63460    1.000
