# CIF file generated by openbabel 3.1.0, see https://openbabel.org
data_I
_chemical_name_common 'image0'
_cell_length_a 14.761
_cell_length_b 15.739
_cell_length_c 15.988
_cell_angle_alpha 100.514
_cell_angle_beta 111.588
_cell_angle_gamma 106.821
_space_group_name_H-M_alt 'P 1'
_space_group_name_Hall 'P 1'
loop_
    _symmetry_equiv_pos_as_xyz
    x,y,z
loop_
    _atom_site_label
    _atom_site_type_symbol
    _atom_site_fract_x
    _atom_site_fract_y
    _atom_site_fract_z
    _atom_site_occupancy
    Cd1      Cd       0.62774    0.77508    0.80497    1.000
    Cd2      Cd       0.78235    0.76769    0.06328    1.000
    Cd3      Cd       0.69425    0.58049    0.82189    1.000
    C1       C        0.87290    0.82660    0.25580    1.000
    C2       C        0.92640    0.85470    0.36440    1.000
    C3       C        0.03190    0.88010    0.41400    1.000
    H1       H        0.07370    0.88350    0.38210    1.000
    C4       C        0.07840    0.90130    0.51170    1.000
    H2       H        0.15090    0.91750    0.54470    1.000
    C5       C        0.01870    0.89850    0.56050    1.000
    C6       C        0.91040    0.87720    0.50960    1.000
    H3       H        0.86950    0.87850    0.54210    1.000
    C7       C        0.86350    0.85440    0.41160    1.000
    H4       H        0.79140    0.83920    0.37780    1.000
    C8       C        0.06800    0.92240    0.66680    1.000
    H5       H        0.14000    0.92560    0.68970    1.000
    H6       H        0.07080    0.98360    0.69540    1.000
    C9       C        0.00340    0.75710    0.65970    1.000
    H7       H        0.96450    0.73480    0.59080    1.000
    H8       H        0.96460    0.71510    0.68340    1.000
    C10      C        0.10990    0.75240    0.68690    1.000
    C11      C        0.14820    0.74370    0.61900    1.000
    H9       H        0.10440    0.73510    0.55620    1.000
    C12      C        0.24980    0.74750    0.64310    1.000
    H10      H        0.27250    0.73890    0.59630    1.000
    C13      C        0.31740    0.76400    0.73630    1.000
    C14      C        0.27970    0.77120    0.80540    1.000
    H11      H        0.32350    0.77960    0.86800    1.000
    C15      C        0.17760    0.76580    0.77960    1.000
    H12      H        0.15370    0.77140    0.82580    1.000
    C16      C        0.43130    0.77400    0.76510    1.000
    C17      C        0.02850    0.88030    0.79330    1.000
    C18      C        0.95430    0.82960    0.81940    1.000
    H13      H        0.89300    0.77980    0.77310    1.000
    C19      C        0.97080    0.85230    0.91240    1.000
    C20      C        0.06270    0.92600    0.98260    1.000
    H14      H        0.07590    0.93900    0.04610    1.000
    C21      C        0.13470    0.98000    0.95720    1.000
    C22      C        0.11670    0.95720    0.86310    1.000
    H15      H        0.16450    0.99400    0.84630    1.000
    C23      C        0.88840    0.80030    0.93800    1.000
    C24      C        0.22820    0.06570    0.03060    1.000
    C25      C        0.66650    0.62970    0.57510    1.000
    C26      C        0.65080    0.53660    0.55790    1.000
    H16      H        0.61810    0.50240    0.58790    1.000
    C27      C        0.68230    0.49190    0.49680    1.000
    H17      H        0.67140    0.42890    0.48660    1.000
    C28      C        0.73080    0.54300    0.45090    1.000
    C29      C        0.73910    0.63420    0.46210    1.000
    H18      H        0.76610    0.66730    0.42820    1.000
    C30      C        0.70720    0.67720    0.52440    1.000
    H19      H        0.71360    0.73900    0.53170    1.000
    C31      C        0.64350    0.67890    0.64940    1.000
    C32      C        0.77840    0.49640    0.39470    1.000
    H20      H        0.84290    0.49460    0.43950    1.000
    H21      H        0.72920    0.43200    0.35810    1.000
    C33      C        0.90670    0.61470    0.36630    1.000
    H22      H        0.92600    0.67520    0.40460    1.000
    C34      C        0.98250    0.58470    0.33780    1.000
    C35      C        0.96210    0.49250    0.29700    1.000
    H23      H        0.90100    0.44620    0.28930    1.000
    C36      C        0.03030    0.46580    0.26670    1.000
    H24      H        0.01410    0.40280    0.23830    1.000
    C37      C        0.12420    0.53600    0.27980    1.000
    C38      C        0.14660    0.62840    0.32300    1.000
    H25      H        0.20900    0.67480    0.33330    1.000
    C39      C        0.07710    0.65320    0.35140    1.000
    H26      H        0.09340    0.71610    0.38000    1.000
    C40      C        0.19430    0.50360    0.24410    1.000
    C41      C        0.73140    0.51530    0.23590    1.000
    C42      C        0.76110    0.54710    0.16860    1.000
    H27      H        0.82860    0.59190    0.18900    1.000
    C43      C        0.69110    0.51250    0.07360    1.000
    C44      C        0.58820    0.44630    0.04040    1.000
    H28      H        0.54230    0.42110    0.97580    1.000
    C45      C        0.55600    0.41880    0.10680    1.000
    C46      C        0.62580    0.45330    0.20250    1.000
    H29      H        0.60260    0.43530    0.24570    1.000
    C47      C        0.44350    0.35510    0.07200    1.000
    C48      C        0.72210    0.54640    0.00240    1.000
    O1       O        0.92910    0.82600    0.21530    1.000
    O2       O        0.78020    0.80660    0.21250    1.000
    O3       O        0.49210    0.79700    0.84880    1.000
    O4       O        0.45700    0.75580    0.70170    1.000
    O5       O        0.79760    0.74570    0.87310    1.000
    O6       O        0.91390    0.81830    0.02550    1.000
    O7       O        0.27620    0.12660    0.00430    1.000
    O8       O        0.25630    0.07340    0.11740    1.000
    O9       O        0.65810    0.76370    0.66470    1.000
    O10      O        0.61290    0.63370    0.69850    1.000
    O11      O        0.28300    0.56730    0.26600    1.000
    O12      O        0.16720    0.42470    0.20040    1.000
    O13      O        0.38960    0.31370    0.98590    1.000
    O14      O        0.40850    0.34790    0.13380    1.000
    O15      O        0.66630    0.49750    0.91650    1.000
    O16      O        0.79880    0.62360    0.02980    1.000
    N1       N        0.00780    0.85240    0.69630    1.000
    N2       N        0.80270    0.54330    0.33010    1.000
    Cd4      Cd       0.37226    0.22492    0.19503    1.000
    Cd5      Cd       0.21765    0.23231    0.93672    1.000
    Cd6      Cd       0.30575    0.41951    0.17811    1.000
    C49      C        0.12710    0.17340    0.74420    1.000
    C50      C        0.07360    0.14530    0.63560    1.000
    C51      C        0.96810    0.11990    0.58600    1.000
    H30      H        0.92630    0.11650    0.61790    1.000
    C52      C        0.92160    0.09870    0.48830    1.000
    H31      H        0.84910    0.08250    0.45530    1.000
    C53      C        0.98130    0.10150    0.43950    1.000
    C54      C        0.08960    0.12280    0.49040    1.000
    H32      H        0.13050    0.12150    0.45790    1.000
    C55      C        0.13650    0.14560    0.58840    1.000
    H33      H        0.20860    0.16080    0.62220    1.000
    C56      C        0.93200    0.07760    0.33320    1.000
    H34      H        0.86000    0.07440    0.31030    1.000
    H35      H        0.92920    0.01640    0.30460    1.000
    C57      C        0.99660    0.24290    0.34030    1.000
    H36      H        0.03550    0.26520    0.40920    1.000
    H37      H        0.03540    0.28490    0.31660    1.000
    C58      C        0.89010    0.24760    0.31310    1.000
    C59      C        0.85180    0.25630    0.38100    1.000
    H38      H        0.89560    0.26490    0.44380    1.000
    C60      C        0.75020    0.25250    0.35690    1.000
    H39      H        0.72750    0.26110    0.40370    1.000
    C61      C        0.68260    0.23600    0.26370    1.000
    C62      C        0.72030    0.22880    0.19460    1.000
    H40      H        0.67650    0.22040    0.13200    1.000
    C63      C        0.82240    0.23420    0.22040    1.000
    H41      H        0.84630    0.22860    0.17420    1.000
    C64      C        0.56870    0.22600    0.23490    1.000
    C65      C        0.97150    0.11970    0.20670    1.000
    C66      C        0.04570    0.17040    0.18060    1.000
    H42      H        0.10700    0.22020    0.22690    1.000
    C67      C        0.02920    0.14770    0.08760    1.000
    C68      C        0.93730    0.07400    0.01740    1.000
    H43      H        0.92410    0.06100    0.95390    1.000
    C69      C        0.86530    0.02000    0.04280    1.000
    C70      C        0.88330    0.04280    0.13690    1.000
    H44      H        0.83550    0.00600    0.15370    1.000
    C71      C        0.11160    0.19970    0.06200    1.000
    C72      C        0.77180    0.93430    0.96940    1.000
    C73      C        0.33350    0.37030    0.42490    1.000
    C74      C        0.34920    0.46340    0.44210    1.000
    H45      H        0.38190    0.49760    0.41210    1.000
    C75      C        0.31770    0.50810    0.50320    1.000
    H46      H        0.32860    0.57110    0.51340    1.000
    C76      C        0.26920    0.45700    0.54910    1.000
    C77      C        0.26090    0.36580    0.53790    1.000
    H47      H        0.23390    0.33270    0.57180    1.000
    C78      C        0.29280    0.32280    0.47560    1.000
    H48      H        0.28640    0.26100    0.46830    1.000
    C79      C        0.35650    0.32110    0.35060    1.000
    C80      C        0.22160    0.50360    0.60530    1.000
    H49      H        0.15710    0.50540    0.56050    1.000
    H50      H        0.27080    0.56800    0.64190    1.000
    C81      C        0.09330    0.38530    0.63370    1.000
    H51      H        0.07400    0.32480    0.59540    1.000
    C82      C        0.01750    0.41530    0.66220    1.000
    C83      C        0.03790    0.50750    0.70300    1.000
    H52      H        0.09900    0.55380    0.71070    1.000
    C84      C        0.96970    0.53420    0.73330    1.000
    H53      H        0.98590    0.59720    0.76170    1.000
    C85      C        0.87580    0.46400    0.72020    1.000
    C86      C        0.85340    0.37160    0.67700    1.000
    H54      H        0.79100    0.32520    0.66670    1.000
    C87      C        0.92290    0.34680    0.64860    1.000
    H55      H        0.90660    0.28390    0.62000    1.000
    C88      C        0.80570    0.49640    0.75590    1.000
    C89      C        0.26860    0.48470    0.76410    1.000
    C90      C        0.23890    0.45290    0.83140    1.000
    H56      H        0.17140    0.40810    0.81100    1.000
    C91      C        0.30890    0.48750    0.92640    1.000
    C92      C        0.41180    0.55370    0.95960    1.000
    H57      H        0.45770    0.57890    0.02420    1.000
    C93      C        0.44400    0.58120    0.89320    1.000
    C94      C        0.37420    0.54670    0.79750    1.000
    H58      H        0.39740    0.56470    0.75430    1.000
    C95      C        0.55650    0.64490    0.92800    1.000
    C96      C        0.27790    0.45360    0.99760    1.000
    O17      O        0.07090    0.17400    0.78470    1.000
    O18      O        0.21980    0.19340    0.78750    1.000
    O19      O        0.50790    0.20300    0.15120    1.000
    O20      O        0.54300    0.24420    0.29830    1.000
    O21      O        0.20240    0.25430    0.12690    1.000
    O22      O        0.08610    0.18170    0.97450    1.000
    O23      O        0.72380    0.87340    0.99570    1.000
    O24      O        0.74370    0.92660    0.88260    1.000
    O25      O        0.34190    0.23630    0.33530    1.000
    O26      O        0.38710    0.36630    0.30150    1.000
    O27      O        0.71700    0.43270    0.73400    1.000
    O28      O        0.83280    0.57530    0.79960    1.000
    O29      O        0.61040    0.68630    0.01410    1.000
    O30      O        0.59150    0.65210    0.86620    1.000
    O31      O        0.33370    0.50250    0.08350    1.000
    O32      O        0.20120    0.37640    0.97020    1.000
    N3       N        0.99220    0.14760    0.30370    1.000
    N4       N        0.19730    0.45670    0.66990    1.000
