# CIF file generated by openbabel 3.1.0, see https://openbabel.org
data_I
_chemical_name_common 'image0'
_cell_length_a 10.079
_cell_length_b 14.817
_cell_length_c 20.165
_cell_angle_alpha 98.577
_cell_angle_beta 103.941
_cell_angle_gamma 91.757
_space_group_name_H-M_alt 'P 1'
_space_group_name_Hall 'P 1'
loop_
    _symmetry_equiv_pos_as_xyz
    x,y,z
loop_
    _atom_site_label
    _atom_site_type_symbol
    _atom_site_fract_x
    _atom_site_fract_y
    _atom_site_fract_z
    _atom_site_occupancy
    N1       N        0.87610    0.22860    0.34930    1.000
    C1       C        0.76550    0.17990    0.29610    1.000
    H1       H        0.69670    0.21270    0.27320    1.000
    C2       C        0.75700    0.08370    0.27740    1.000
    H2       H        0.69560    0.05250    0.23800    1.000
    C3       C        0.84950    0.03960    0.32330    1.000
    N2       N        0.14920    0.19230    0.20240    1.000
    C4       C        0.25160    0.16440    0.24880    1.000
    H3       H        0.32050    0.20780    0.27440    1.000
    Co1      Co       0.89282    0.37440    0.34693    1.000
    Co2      Co       0.13889    0.33832    0.20610    1.000
    O1       O        0.09030    0.37840    0.40130    1.000
    O2       O        0.94080    0.32310    0.14980    1.000
    O3       O        0.81260    0.39860    0.43980    1.000
    O4       O        0.35360    0.34500    0.21200    1.000
    O5       O        0.67660    0.37880    0.33700    1.000
    O6       O        0.21720    0.33440    0.10860    1.000
    O7       O        0.17030    0.34400    0.30880    1.000
    N3       N        0.13600    0.48340    0.21680    1.000
    C5       C        0.58850    0.33880    0.16130    1.000
    H4       H        0.60030    0.34390    0.20890    1.000
    N4       N        0.91100    0.51870    0.34470    1.000
    C6       C        0.44240    0.37710    0.38860    1.000
    H5       H        0.42940    0.37380    0.34110    1.000
    C7       C        0.32990    0.37300    0.41810    1.000
    C8       C        0.57350    0.38610    0.43230    1.000
    O8       O        0.51300    0.37830    0.59980    1.000
    C9       C        0.18640    0.36470    0.37260    1.000
    C10      C        0.84390    0.33300    0.17920    1.000
    C11      C        0.70390    0.33270    0.13260    1.000
    O9       O        0.52530    0.33240    0.95010    1.000
    O10      O        0.85780    0.34120    0.24220    1.000
    C12      C        0.69540    0.38820    0.40220    1.000
    C13      C        0.55590    0.33240    0.01980    1.000
    C14      C        0.34970    0.37510    0.48900    1.000
    H6       H        0.27460    0.37260    0.50800    1.000
    C15      C        0.59310    0.38800    0.50200    1.000
    H7       H        0.68180    0.39400    0.53020    1.000
    C16      C        0.68450    0.32900    0.06160    1.000
    H8       H        0.75940    0.32410    0.04220    1.000
    C17      C        0.45950    0.33710    0.11880    1.000
    C18      C        0.63540    0.33090    0.91660    1.000
    H9       H        0.68080    0.27440    0.92000    1.000
    H10      H        0.70220    0.38170    0.93830    1.000
    C19      C        0.33520    0.34010    0.14820    1.000
    C20      C        0.07560    0.52750    0.16680    1.000
    H11      H        0.02770    0.49320    0.12490    1.000
    C21      C        0.15660    0.77390    0.25110    1.000
    C22      C        0.86920    0.79260    0.30430    1.000
    N5       N        0.81460    0.89890    0.24300    1.000
    C23      C        0.48220    0.38100    0.53140    1.000
    C24      C        0.16110    0.01100    0.22420    1.000
    C25      C        0.20100    0.53490    0.27740    1.000
    H12      H        0.24330    0.50590    0.31390    1.000
    C26      C        0.16380    0.91970    0.24540    1.000
    C27      C        0.57580    0.33830    0.84240    1.000
    C28      C        0.46200    0.35420    0.70430    1.000
    C29      C        0.53590    0.26080    0.79420    1.000
    H13      H        0.54530    0.20340    0.80760    1.000
    C30      C        0.55680    0.42400    0.82290    1.000
    H14      H        0.58370    0.47650    0.85580    1.000
    C31      C        0.44090    0.33310    0.04710    1.000
    H15      H        0.35330    0.33100    0.01820    1.000
    C32      C        0.94020    0.07880    0.37080    1.000
    H16      H        0.00490    0.04620    0.39690    1.000
    C33      C        0.14550    0.67490    0.23330    1.000
    N6       N        0.83170    0.81910    0.25080    1.000
    C34      C        0.40150    0.36260    0.63080    1.000
    H17      H        0.34720    0.30690    0.60680    1.000
    H18      H        0.34270    0.41320    0.62820    1.000
    C35      C        0.48020    0.26820    0.72380    1.000
    H19      H        0.45580    0.21580    0.69070    1.000
    C36      C        0.20720    0.62840    0.28720    1.000
    H20      H        0.25260    0.66150    0.33000    1.000
    C37      C        0.05350    0.03480    0.17270    1.000
    H21      H        0.98620    0.99210    0.14460    1.000
    N7       N        0.18940    0.81720    0.31400    1.000
    C38      C        0.95110    0.68820    0.38300    1.000
    H22      H        0.98390    0.73950    0.41650    1.000
    C39      C        0.26190    0.07650    0.26120    1.000
    H23      H        0.33590    0.06120    0.29410    1.000
    C40      C        0.84570    0.93460    0.30510    1.000
    C41      C        0.88440    0.69180    0.31800    1.000
    C42      C        0.96900    0.57830    0.39770    1.000
    H24      H        0.01590    0.56310    0.43980    1.000
    N8       N        0.19350    0.90860    0.31050    1.000
    C43      C        0.05540    0.12850    0.16690    1.000
    H25      H        0.98300    0.14680    0.13470    1.000
    C44      C        0.07940    0.62220    0.17310    1.000
    H26      H        0.03620    0.64940    0.13570    1.000
    C45      C        0.94500    0.18590    0.38700    1.000
    H27      H        0.00470    0.21640    0.42750    1.000
    C46      C        0.49810    0.43140    0.75470    1.000
    H28      H        0.48250    0.48900    0.74250    1.000
    N9       N        0.13940    0.83720    0.20580    1.000
    N10      N        0.88970    0.87400    0.35010    1.000
    N11      N        0.11420    0.81690    0.13450    1.000
    H29      H        0.11310    0.86030    0.11040    1.000
    H30      H        0.09970    0.76090    0.11420    1.000
    C47      C        0.83470    0.62900    0.26920    1.000
    H31      H        0.78950    0.63980    0.22550    1.000
    C48      C        0.85080    0.54780    0.28420    1.000
    H32      H        0.81510    0.50090    0.24740    1.000
    N12      N        0.12390    0.77140    0.65070    1.000
    C49      C        0.23450    0.82010    0.70390    1.000
    H33      H        0.30330    0.78730    0.72680    1.000
    C50      C        0.24300    0.91630    0.72260    1.000
    H34      H        0.30440    0.94750    0.76200    1.000
    C51      C        0.15050    0.96040    0.67670    1.000
    N13      N        0.85080    0.80770    0.79760    1.000
    C52      C        0.74840    0.83560    0.75120    1.000
    H35      H        0.67950    0.79220    0.72560    1.000
    Co3      Co       0.10718    0.62560    0.65307    1.000
    Co4      Co       0.86111    0.66168    0.79390    1.000
    O11      O        0.90970    0.62160    0.59870    1.000
    O12      O        0.05920    0.67690    0.85020    1.000
    O13      O        0.18740    0.60140    0.56020    1.000
    O14      O        0.64640    0.65500    0.78800    1.000
    O15      O        0.32340    0.62120    0.66300    1.000
    O16      O        0.78280    0.66560    0.89140    1.000
    O17      O        0.82970    0.65600    0.69120    1.000
    N14      N        0.86400    0.51660    0.78320    1.000
    C53      C        0.41150    0.66120    0.83870    1.000
    H36      H        0.39970    0.65610    0.79110    1.000
    N15      N        0.08900    0.48130    0.65530    1.000
    C54      C        0.55760    0.62290    0.61140    1.000
    H37      H        0.57060    0.62620    0.65890    1.000
    C55      C        0.67010    0.62700    0.58190    1.000
    C56      C        0.42650    0.61390    0.56770    1.000
    O18      O        0.48700    0.62170    0.40020    1.000
    C57      C        0.81360    0.63530    0.62740    1.000
    C58      C        0.15610    0.66700    0.82080    1.000
    C59      C        0.29610    0.66730    0.86740    1.000
    O19      O        0.47470    0.66760    0.04990    1.000
    O20      O        0.14220    0.65880    0.75780    1.000
    C60      C        0.30460    0.61180    0.59780    1.000
    C61      C        0.44410    0.66760    0.98020    1.000
    C62      C        0.65030    0.62490    0.51100    1.000
    H38      H        0.72540    0.62740    0.49200    1.000
    C63      C        0.40690    0.61200    0.49800    1.000
    H39      H        0.31820    0.60600    0.46980    1.000
    C64      C        0.31550    0.67100    0.93840    1.000
    H40      H        0.24060    0.67590    0.95780    1.000
    C65      C        0.54050    0.66290    0.88120    1.000
    C66      C        0.36460    0.66910    0.08340    1.000
    H41      H        0.31920    0.72560    0.08000    1.000
    H42      H        0.29780    0.61830    0.06170    1.000
    C67      C        0.66480    0.65990    0.85180    1.000
    C68      C        0.92440    0.47250    0.83320    1.000
    H43      H        0.97230    0.50680    0.87510    1.000
    C69      C        0.84340    0.22610    0.74890    1.000
    C70      C        0.13080    0.20740    0.69570    1.000
    N16      N        0.18540    0.10110    0.75700    1.000
    C71      C        0.51780    0.61900    0.46860    1.000
    C72      C        0.83890    0.98900    0.77580    1.000
    C73      C        0.79900    0.46510    0.72260    1.000
    H44      H        0.75670    0.49410    0.68610    1.000
    C74      C        0.83620    0.08030    0.75460    1.000
    C75      C        0.42420    0.66170    0.15760    1.000
    C76      C        0.53800    0.64580    0.29570    1.000
    C77      C        0.46410    0.73920    0.20580    1.000
    H45      H        0.45470    0.79660    0.19240    1.000
    C78      C        0.44320    0.57600    0.17710    1.000
    H46      H        0.41630    0.52350    0.14420    1.000
    C79      C        0.55910    0.66690    0.95290    1.000
    H47      H        0.64670    0.66900    0.98180    1.000
    C80      C        0.05980    0.92120    0.62920    1.000
    H48      H        0.99510    0.95380    0.60310    1.000
    C81      C        0.85450    0.32510    0.76670    1.000
    N17      N        0.16830    0.18090    0.74920    1.000
    C82      C        0.59850    0.63740    0.36920    1.000
    H49      H        0.65280    0.69310    0.39320    1.000
    H50      H        0.65730    0.58680    0.37180    1.000
    C83      C        0.51980    0.73180    0.27620    1.000
    H51      H        0.54420    0.78420    0.30930    1.000
    C84      C        0.79280    0.37160    0.71280    1.000
    H52      H        0.74740    0.33850    0.67000    1.000
    C85      C        0.94650    0.96520    0.82730    1.000
    H53      H        0.01380    0.00790    0.85540    1.000
    N18      N        0.81060    0.18280    0.68600    1.000
    C86      C        0.04890    0.31180    0.61700    1.000
    H54      H        0.01610    0.26050    0.58350    1.000
    C87      C        0.73810    0.92350    0.73880    1.000
    H55      H        0.66410    0.93880    0.70590    1.000
    C88      C        0.15430    0.06540    0.69490    1.000
    C89      C        0.11560    0.30820    0.68200    1.000
    C90      C        0.03100    0.42170    0.60230    1.000
    H56      H        0.98410    0.43690    0.56020    1.000
    N19      N        0.80650    0.09140    0.68950    1.000
    C91      C        0.94460    0.87150    0.83310    1.000
    H57      H        0.01700    0.85320    0.86530    1.000
    C92      C        0.92060    0.37780    0.82690    1.000
    H58      H        0.96380    0.35060    0.86430    1.000
    C93      C        0.05500    0.81410    0.61300    1.000
    H59      H        0.99530    0.78360    0.57250    1.000
    C94      C        0.50190    0.56860    0.24530    1.000
    H60      H        0.51750    0.51100    0.25750    1.000
    N20      N        0.86060    0.16280    0.79420    1.000
    N21      N        0.11030    0.12600    0.64990    1.000
    N22      N        0.88580    0.18310    0.86550    1.000
    H61      H        0.88690    0.13970    0.88960    1.000
    H62      H        0.90030    0.23910    0.88580    1.000
    C95      C        0.16530    0.37100    0.73080    1.000
    H63      H        0.21050    0.36020    0.77450    1.000
    C96      C        0.14920    0.45220    0.71580    1.000
    H64      H        0.18490    0.49910    0.75260    1.000
