# CIF file generated by openbabel 3.1.0, see https://openbabel.org
data_I
_chemical_name_common 'image0'
_cell_length_a 5.5512
_cell_length_b 9.7858
_cell_length_c 12.9382
_cell_angle_alpha 86.877
_cell_angle_beta 87.809
_cell_angle_gamma 76.451
_space_group_name_H-M_alt 'P 1'
_space_group_name_Hall 'P 1'
loop_
    _symmetry_equiv_pos_as_xyz
    x,y,z
loop_
    _atom_site_label
    _atom_site_type_symbol
    _atom_site_fract_x
    _atom_site_fract_y
    _atom_site_fract_z
    _atom_site_occupancy
    Zn1      Zn       0.08320    0.62355    0.81280    1.000
    Zn2      Zn       0.53250    0.02099    0.49277    1.000
    Zn3      Zn       0.80123    0.07970    0.91915    1.000
    P1       P        0.00321    0.83588    0.60647    1.000
    P2       P        0.76924    0.77383    0.01355    1.000
    O1       O        0.98240    0.70650    0.67494    1.000
    O2       O        0.81960    0.85890    0.51998    1.000
    O3       O        0.26910    0.82510    0.56690    1.000
    O4       O        0.06280    0.97590    0.77690    1.000
    H1       H        0.18900    0.00000    0.75100    1.000
    O5       O        0.48600    0.05610    0.65061    1.000
    O6       O        0.59250    0.02230    0.81296    1.000
    O7       O        0.49230    0.81340    0.99678    1.000
    O8       O        0.88230    0.90170    0.01397    1.000
    O9       O        0.90440    0.66560    0.94117    1.000
    O10      O        0.69060    0.58210    0.15981    1.000
    H2       H        0.55500    0.61800    0.16000    1.000
    O11      O        0.22100    0.72380    0.16656    1.000
    O12      O        0.14390    0.51790    0.21249    1.000
    C1       C        0.91970    0.99340    0.68520    1.000
    H3       H        0.95500    0.08100    0.64400    1.000
    C2       C        0.64850    0.02560    0.71850    1.000
    C3       C        0.81030    0.69570    0.14600    1.000
    H4       H        0.74400    0.77100    0.19100    1.000
    C4       C        0.07660    0.64130    0.17643    1.000
    Zn4      Zn       0.91680    0.37645    0.18720    1.000
    Zn5      Zn       0.46750    0.97901    0.50723    1.000
    Zn6      Zn       0.19877    0.92030    0.08085    1.000
    P3       P        0.99679    0.16412    0.39353    1.000
    P4       P        0.23076    0.22617    0.98645    1.000
    O13      O        0.01760    0.29350    0.32506    1.000
    O14      O        0.18040    0.14110    0.48002    1.000
    O15      O        0.73090    0.17490    0.43310    1.000
    O16      O        0.93720    0.02410    0.22310    1.000
    H5       H        0.81100    0.00000    0.24900    1.000
    O17      O        0.51400    0.94390    0.34939    1.000
    O18      O        0.40750    0.97770    0.18704    1.000
    O19      O        0.50770    0.18660    0.00322    1.000
    O20      O        0.11770    0.09830    0.98603    1.000
    O21      O        0.09560    0.33440    0.05883    1.000
    O22      O        0.30940    0.41790    0.84019    1.000
    H6       H        0.44500    0.38200    0.84000    1.000
    O23      O        0.77900    0.27620    0.83344    1.000
    O24      O        0.85610    0.48210    0.78751    1.000
    C5       C        0.08030    0.00660    0.31480    1.000
    H7       H        0.04500    0.91900    0.35600    1.000
    C6       C        0.35150    0.97440    0.28150    1.000
    C7       C        0.18970    0.30430    0.85400    1.000
    H8       H        0.25600    0.22900    0.80900    1.000
    C8       C        0.92340    0.35870    0.82357    1.000
