# CIF file generated by openbabel 3.1.0, see https://openbabel.org
data_I
_chemical_name_common 'image0'
_cell_length_a 15.8698
_cell_length_b 15.8698
_cell_length_c 21.641
_cell_angle_alpha 90
_cell_angle_beta 90
_cell_angle_gamma 90
_space_group_name_H-M_alt 'P 1'
_space_group_name_Hall 'P 1'
loop_
    _symmetry_equiv_pos_as_xyz
    x,y,z
loop_
    _atom_site_label
    _atom_site_type_symbol
    _atom_site_fract_x
    _atom_site_fract_y
    _atom_site_fract_z
    _atom_site_occupancy
    C1       C        0.46290    0.74580    0.03580    1.000
    H1       H        0.49260    0.74050    0.07260    1.000
    C2       C        0.40700    0.81260    0.03030    1.000
    H2       H        0.40110    0.85100    0.06240    1.000
    C3       C        0.36010    0.82180    0.97680    1.000
    C4       C        0.37630    0.76360    0.93030    1.000
    H3       H        0.34840    0.76790    0.89270    1.000
    C5       C        0.43370    0.69930    0.93990    1.000
    H4       H        0.44260    0.66110    0.90800    1.000
    C6       C        0.29360    0.88790    0.97060    1.000
    C7       C        0.29420    0.95900    0.00740    1.000
    H5       H        0.33750    0.96690    0.03580    1.000
    C8       C        0.23110    0.01850    0.00240    1.000
    H6       H        0.23320    0.06700    0.02640    1.000
    C9       C        0.16500    0.00640    0.96210    1.000
    H7       H        0.12220    0.04630    0.95930    1.000
    C10      C        0.16220    0.93420    0.92550    1.000
    C11      C        0.22640    0.87580    0.93000    1.000
    H8       H        0.22480    0.82760    0.90560    1.000
    C12      C        0.09200    0.92600    0.88171    1.000
    C13      C        0.99580    0.87520    0.81976    1.000
    C14      C        0.94040    0.81320    0.78924    1.000
    C15      C        0.95670    0.78230    0.73000    1.000
    H9       H        0.00410    0.80000    0.70830    1.000
    C16      C        0.90160    0.72540    0.70410    1.000
    H10      H        0.91120    0.70620    0.66410    1.000
    C17      C        0.83240    0.69620    0.73630    1.000
    H11      H        0.79650    0.65690    0.71820    1.000
    C18      C        0.81610    0.72540    0.79600    1.000
    C19      C        0.87040    0.78410    0.82140    1.000
    H12      H        0.85980    0.80470    0.86090    1.000
    C20      C        0.74370    0.69340    0.83350    1.000
    C21      C        0.71630    0.73700    0.88550    1.000
    H13      H        0.73830    0.78990    0.89460    1.000
    C22      C        0.65720    0.70200    0.92300    1.000
    H14      H        0.64120    0.73190    0.95800    1.000
    C23      C        0.64120    0.58830    0.85980    1.000
    H15      H        0.61350    0.53870    0.84940    1.000
    C24      C        0.70150    0.61830    0.81980    1.000
    H16      H        0.71420    0.58880    0.78390    1.000
    N1       N        0.05370    0.98990    0.85555    1.000
    N2       N        0.99330    0.95770    0.81631    1.000
    N3       N        0.05710    0.85290    0.86048    1.000
    N4       N        0.07720    0.77090    0.88030    1.000
    H17      H        0.09650    0.74140    0.84830    1.000
    H18      H        0.03120    0.74610    0.89530    1.000
    N5       N        0.47670    0.68870    0.99175    1.000
    N6       N        0.62010    0.62650    0.91276    1.000
    C25      C        0.53710    0.25420    0.53580    1.000
    H19      H        0.50740    0.25950    0.57260    1.000
    C26      C        0.59300    0.18740    0.53030    1.000
    H20      H        0.59890    0.14900    0.56240    1.000
    C27      C        0.63990    0.17820    0.47680    1.000
    C28      C        0.62370    0.23640    0.43030    1.000
    H21      H        0.65160    0.23210    0.39270    1.000
    C29      C        0.56630    0.30070    0.43990    1.000
    H22      H        0.55740    0.33890    0.40800    1.000
    C30      C        0.70640    0.11210    0.47060    1.000
    C31      C        0.70580    0.04100    0.50740    1.000
    H23      H        0.66250    0.03310    0.53580    1.000
    C32      C        0.76890    0.98150    0.50240    1.000
    H24      H        0.76680    0.93300    0.52640    1.000
    C33      C        0.83500    0.99360    0.46210    1.000
    H25      H        0.87780    0.95370    0.45930    1.000
    C34      C        0.83780    0.06580    0.42550    1.000
    C35      C        0.77360    0.12420    0.43000    1.000
    H26      H        0.77520    0.17240    0.40560    1.000
    C36      C        0.90800    0.07400    0.38171    1.000
    C37      C        0.00420    0.12480    0.31976    1.000
    C38      C        0.05960    0.18680    0.28924    1.000
    C39      C        0.04330    0.21770    0.23000    1.000
    H27      H        0.99590    0.20000    0.20830    1.000
    C40      C        0.09840    0.27460    0.20410    1.000
    H28      H        0.08880    0.29380    0.16410    1.000
    C41      C        0.16760    0.30380    0.23630    1.000
    H29      H        0.20350    0.34310    0.21820    1.000
    C42      C        0.18390    0.27460    0.29600    1.000
    C43      C        0.12960    0.21590    0.32140    1.000
    H30      H        0.14020    0.19530    0.36090    1.000
    C44      C        0.25630    0.30660    0.33350    1.000
    C45      C        0.28370    0.26300    0.38550    1.000
    H31      H        0.26170    0.21010    0.39460    1.000
    C46      C        0.34280    0.29800    0.42300    1.000
    H32      H        0.35880    0.26810    0.45800    1.000
    C47      C        0.35880    0.41170    0.35980    1.000
    H33      H        0.38650    0.46130    0.34940    1.000
    C48      C        0.29850    0.38170    0.31980    1.000
    H34      H        0.28580    0.41120    0.28390    1.000
    N7       N        0.94630    0.01010    0.35555    1.000
    N8       N        0.00670    0.04230    0.31631    1.000
    N9       N        0.94290    0.14710    0.36048    1.000
    N10      N        0.92280    0.22910    0.38030    1.000
    H35      H        0.90350    0.25860    0.34830    1.000
    H36      H        0.96880    0.25390    0.39530    1.000
    N11      N        0.52330    0.31130    0.49175    1.000
    N12      N        0.37990    0.37350    0.41276    1.000
    C49      C        0.75420    0.96290    0.78580    1.000
    H37      H        0.75950    0.99260    0.82260    1.000
    C50      C        0.68740    0.90700    0.78030    1.000
    H38      H        0.64900    0.90110    0.81240    1.000
    C51      C        0.67820    0.86010    0.72680    1.000
    C52      C        0.73640    0.87630    0.68030    1.000
    H39      H        0.73210    0.84840    0.64270    1.000
    C53      C        0.80070    0.93370    0.68990    1.000
    H40      H        0.83890    0.94260    0.65800    1.000
    C54      C        0.61210    0.79360    0.72060    1.000
    C55      C        0.54100    0.79420    0.75740    1.000
    H41      H        0.53310    0.83750    0.78580    1.000
    C56      C        0.48150    0.73110    0.75240    1.000
    H42      H        0.43300    0.73320    0.77640    1.000
    C57      C        0.49360    0.66500    0.71210    1.000
    H43      H        0.45370    0.62220    0.70930    1.000
    C58      C        0.56580    0.66220    0.67550    1.000
    C59      C        0.62420    0.72640    0.68000    1.000
    H44      H        0.67240    0.72480    0.65560    1.000
    C60      C        0.57400    0.59200    0.63171    1.000
    C61      C        0.62480    0.49580    0.56976    1.000
    C62      C        0.68680    0.44040    0.53924    1.000
    C63      C        0.71770    0.45670    0.48000    1.000
    H45      H        0.70000    0.50410    0.45830    1.000
    C64      C        0.77460    0.40160    0.45410    1.000
    H46      H        0.79380    0.41120    0.41410    1.000
    C65      C        0.80380    0.33240    0.48630    1.000
    H47      H        0.84310    0.29650    0.46820    1.000
    C66      C        0.77460    0.31610    0.54600    1.000
    C67      C        0.71590    0.37040    0.57140    1.000
    H48      H        0.69530    0.35980    0.61090    1.000
    C68      C        0.80660    0.24370    0.58350    1.000
    C69      C        0.76300    0.21630    0.63550    1.000
    H49      H        0.71010    0.23830    0.64460    1.000
    C70      C        0.79800    0.15720    0.67300    1.000
    H50      H        0.76810    0.14120    0.70800    1.000
    C71      C        0.91170    0.14120    0.60980    1.000
    H51      H        0.96130    0.11350    0.59940    1.000
    C72      C        0.88170    0.20150    0.56980    1.000
    H52      H        0.91120    0.21420    0.53390    1.000
    N13      N        0.51010    0.55370    0.60555    1.000
    N14      N        0.54230    0.49330    0.56631    1.000
    N15      N        0.64710    0.55710    0.61048    1.000
    N16      N        0.72910    0.57720    0.63030    1.000
    H53      H        0.75860    0.59650    0.59830    1.000
    H54      H        0.75390    0.53120    0.64530    1.000
    N17      N        0.81130    0.97670    0.74175    1.000
    N18      N        0.87350    0.12010    0.66276    1.000
    C73      C        0.24580    0.03710    0.28580    1.000
    H55      H        0.24050    0.00740    0.32260    1.000
    C74      C        0.31260    0.09300    0.28030    1.000
    H56      H        0.35100    0.09890    0.31240    1.000
    C75      C        0.32180    0.13990    0.22680    1.000
    C76      C        0.26360    0.12370    0.18030    1.000
    H57      H        0.26790    0.15160    0.14270    1.000
    C77      C        0.19930    0.06630    0.18990    1.000
    H58      H        0.16110    0.05740    0.15800    1.000
    C78      C        0.38790    0.20640    0.22060    1.000
    C79      C        0.45900    0.20580    0.25740    1.000
    H59      H        0.46690    0.16250    0.28580    1.000
    C80      C        0.51850    0.26890    0.25240    1.000
    H60      H        0.56700    0.26680    0.27640    1.000
    C81      C        0.50640    0.33500    0.21210    1.000
    H61      H        0.54630    0.37780    0.20930    1.000
    C82      C        0.43420    0.33780    0.17550    1.000
    C83      C        0.37580    0.27360    0.18000    1.000
    H62      H        0.32760    0.27520    0.15560    1.000
    C84      C        0.42600    0.40800    0.13171    1.000
    C85      C        0.37520    0.50420    0.06976    1.000
    C86      C        0.31320    0.55960    0.03924    1.000
    C87      C        0.28230    0.54330    0.98000    1.000
    H63      H        0.30000    0.49590    0.95830    1.000
    C88      C        0.22540    0.59840    0.95410    1.000
    H64      H        0.20620    0.58880    0.91410    1.000
    C89      C        0.19620    0.66760    0.98630    1.000
    H65      H        0.15690    0.70350    0.96820    1.000
    C90      C        0.22540    0.68390    0.04600    1.000
    C91      C        0.28410    0.62960    0.07140    1.000
    H66      H        0.30470    0.64020    0.11090    1.000
    C92      C        0.19340    0.75630    0.08350    1.000
    C93      C        0.23700    0.78370    0.13550    1.000
    H67      H        0.28990    0.76170    0.14460    1.000
    C94      C        0.20200    0.84280    0.17300    1.000
    H68      H        0.23190    0.85880    0.20800    1.000
    C95      C        0.08830    0.85880    0.10980    1.000
    H69      H        0.03870    0.88650    0.09940    1.000
    C96      C        0.11830    0.79850    0.06980    1.000
    H70      H        0.08880    0.78580    0.03390    1.000
    N19      N        0.48990    0.44630    0.10555    1.000
    N20      N        0.45770    0.50670    0.06631    1.000
    N21      N        0.35290    0.44290    0.11048    1.000
    N22      N        0.27090    0.42280    0.13030    1.000
    H71      H        0.24140    0.40350    0.09830    1.000
    H72      H        0.24610    0.46880    0.14530    1.000
    N23      N        0.18870    0.02330    0.24175    1.000
    N24      N        0.12650    0.87990    0.16276    1.000
    C97      C        0.03710    0.24580    0.71420    1.000
    H73      H        0.00740    0.24050    0.67740    1.000
    C98      C        0.09300    0.31260    0.71970    1.000
    H74      H        0.09890    0.35100    0.68760    1.000
    C99      C        0.13990    0.32180    0.77320    1.000
    C100     C        0.12370    0.26360    0.81970    1.000
    H75      H        0.15160    0.26790    0.85730    1.000
    C101     C        0.06630    0.19930    0.81010    1.000
    H76      H        0.05740    0.16110    0.84200    1.000
    C102     C        0.20640    0.38790    0.77940    1.000
    C103     C        0.20580    0.45900    0.74260    1.000
    H77      H        0.16250    0.46690    0.71420    1.000
    C104     C        0.26890    0.51850    0.74760    1.000
    H78      H        0.26680    0.56700    0.72360    1.000
    C105     C        0.33500    0.50640    0.78790    1.000
    H79      H        0.37780    0.54630    0.79070    1.000
    C106     C        0.33780    0.43420    0.82450    1.000
    C107     C        0.27360    0.37580    0.82000    1.000
    H80      H        0.27520    0.32760    0.84440    1.000
    C108     C        0.40800    0.42600    0.86829    1.000
    C109     C        0.50420    0.37520    0.93024    1.000
    C110     C        0.55960    0.31320    0.96076    1.000
    C111     C        0.54330    0.28230    0.02000    1.000
    H81      H        0.49590    0.30000    0.04170    1.000
    C112     C        0.59840    0.22540    0.04590    1.000
    H82      H        0.58880    0.20620    0.08590    1.000
    C113     C        0.66760    0.19620    0.01370    1.000
    H83      H        0.70350    0.15690    0.03180    1.000
    C114     C        0.68390    0.22540    0.95400    1.000
    C115     C        0.62960    0.28410    0.92860    1.000
    H84      H        0.64020    0.30470    0.88910    1.000
    C116     C        0.75630    0.19340    0.91650    1.000
    C117     C        0.78370    0.23700    0.86450    1.000
    H85      H        0.76170    0.28990    0.85540    1.000
    C118     C        0.84280    0.20200    0.82700    1.000
    H86      H        0.85880    0.23190    0.79200    1.000
    C119     C        0.85880    0.08830    0.89020    1.000
    H87      H        0.88650    0.03870    0.90060    1.000
    C120     C        0.79850    0.11830    0.93020    1.000
    H88      H        0.78580    0.08880    0.96610    1.000
    N25      N        0.44630    0.48990    0.89445    1.000
    N26      N        0.50670    0.45770    0.93369    1.000
    N27      N        0.44290    0.35290    0.88952    1.000
    N28      N        0.42280    0.27090    0.86970    1.000
    H89      H        0.40350    0.24140    0.90170    1.000
    H90      H        0.46880    0.24610    0.85470    1.000
    N29      N        0.02330    0.18870    0.75825    1.000
    N30      N        0.87990    0.12650    0.83724    1.000
    C121     C        0.96290    0.75420    0.21420    1.000
    H91      H        0.99260    0.75950    0.17740    1.000
    C122     C        0.90700    0.68740    0.21970    1.000
    H92      H        0.90110    0.64900    0.18760    1.000
    C123     C        0.86010    0.67820    0.27320    1.000
    C124     C        0.87630    0.73640    0.31970    1.000
    H93      H        0.84840    0.73210    0.35730    1.000
    C125     C        0.93370    0.80070    0.31010    1.000
    H94      H        0.94260    0.83890    0.34200    1.000
    C126     C        0.79360    0.61210    0.27940    1.000
    C127     C        0.79420    0.54100    0.24260    1.000
    H95      H        0.83750    0.53310    0.21420    1.000
    C128     C        0.73110    0.48150    0.24760    1.000
    H96      H        0.73320    0.43300    0.22360    1.000
    C129     C        0.66500    0.49360    0.28790    1.000
    H97      H        0.62220    0.45370    0.29070    1.000
    C130     C        0.66220    0.56580    0.32450    1.000
    C131     C        0.72640    0.62420    0.32000    1.000
    H98      H        0.72480    0.67240    0.34440    1.000
    C132     C        0.59200    0.57400    0.36829    1.000
    C133     C        0.49580    0.62480    0.43024    1.000
    C134     C        0.44040    0.68680    0.46076    1.000
    C135     C        0.45670    0.71770    0.52000    1.000
    H99      H        0.50410    0.70000    0.54170    1.000
    C136     C        0.40160    0.77460    0.54590    1.000
    H100     H        0.41120    0.79380    0.58590    1.000
    C137     C        0.33240    0.80380    0.51370    1.000
    H101     H        0.29650    0.84310    0.53180    1.000
    C138     C        0.31610    0.77460    0.45400    1.000
    C139     C        0.37040    0.71590    0.42860    1.000
    H102     H        0.35980    0.69530    0.38910    1.000
    C140     C        0.24370    0.80660    0.41650    1.000
    C141     C        0.21630    0.76300    0.36450    1.000
    H103     H        0.23830    0.71010    0.35540    1.000
    C142     C        0.15720    0.79800    0.32700    1.000
    H104     H        0.14120    0.76810    0.29200    1.000
    C143     C        0.14120    0.91170    0.39020    1.000
    H105     H        0.11350    0.96130    0.40060    1.000
    C144     C        0.20150    0.88170    0.43020    1.000
    H106     H        0.21420    0.91120    0.46610    1.000
    N31      N        0.55370    0.51010    0.39445    1.000
    N32      N        0.49330    0.54230    0.43369    1.000
    N33      N        0.55710    0.64710    0.38952    1.000
    N34      N        0.57720    0.72910    0.36970    1.000
    H107     H        0.59650    0.75860    0.40170    1.000
    H108     H        0.53120    0.75390    0.35470    1.000
    N35      N        0.97670    0.81130    0.25825    1.000
    N36      N        0.12010    0.87350    0.33724    1.000
    C145     C        0.74580    0.46290    0.96420    1.000
    H109     H        0.74050    0.49260    0.92740    1.000
    C146     C        0.81260    0.40700    0.96970    1.000
    H110     H        0.85100    0.40110    0.93760    1.000
    C147     C        0.82180    0.36010    0.02320    1.000
    C148     C        0.76360    0.37630    0.06970    1.000
    H111     H        0.76790    0.34840    0.10730    1.000
    C149     C        0.69930    0.43370    0.06010    1.000
    H112     H        0.66110    0.44260    0.09200    1.000
    C150     C        0.88790    0.29360    0.02940    1.000
    C151     C        0.95900    0.29420    0.99260    1.000
    H113     H        0.96690    0.33750    0.96420    1.000
    C152     C        0.01850    0.23110    0.99760    1.000
    H114     H        0.06700    0.23320    0.97360    1.000
    C153     C        0.00640    0.16500    0.03790    1.000
    H115     H        0.04630    0.12220    0.04070    1.000
    C154     C        0.93420    0.16220    0.07450    1.000
    C155     C        0.87580    0.22640    0.07000    1.000
    H116     H        0.82760    0.22480    0.09440    1.000
    C156     C        0.92600    0.09200    0.11829    1.000
    C157     C        0.87520    0.99580    0.18024    1.000
    C158     C        0.81320    0.94040    0.21076    1.000
    C159     C        0.78230    0.95670    0.27000    1.000
    H117     H        0.80000    0.00410    0.29170    1.000
    C160     C        0.72540    0.90160    0.29590    1.000
    H118     H        0.70620    0.91120    0.33590    1.000
    C161     C        0.69620    0.83240    0.26370    1.000
    H119     H        0.65690    0.79650    0.28180    1.000
    C162     C        0.72540    0.81610    0.20400    1.000
    C163     C        0.78410    0.87040    0.17860    1.000
    H120     H        0.80470    0.85980    0.13910    1.000
    C164     C        0.69340    0.74370    0.16650    1.000
    C165     C        0.73700    0.71630    0.11450    1.000
    H121     H        0.78990    0.73830    0.10540    1.000
    C166     C        0.70200    0.65720    0.07700    1.000
    H122     H        0.73190    0.64120    0.04200    1.000
    C167     C        0.58830    0.64120    0.14020    1.000
    H123     H        0.53870    0.61350    0.15060    1.000
    C168     C        0.61830    0.70150    0.18020    1.000
    H124     H        0.58880    0.71420    0.21610    1.000
    N37      N        0.98990    0.05370    0.14445    1.000
    N38      N        0.95770    0.99330    0.18369    1.000
    N39      N        0.85290    0.05710    0.13952    1.000
    N40      N        0.77090    0.07720    0.11970    1.000
    H125     H        0.74140    0.09650    0.15170    1.000
    H126     H        0.74610    0.03120    0.10470    1.000
    N41      N        0.68870    0.47670    0.00825    1.000
    N42      N        0.62650    0.62010    0.08724    1.000
    C169     C        0.25420    0.53710    0.46420    1.000
    H127     H        0.25950    0.50740    0.42740    1.000
    C170     C        0.18740    0.59300    0.46970    1.000
    H128     H        0.14900    0.59890    0.43760    1.000
    C171     C        0.17820    0.63990    0.52320    1.000
    C172     C        0.23640    0.62370    0.56970    1.000
    H129     H        0.23210    0.65160    0.60730    1.000
    C173     C        0.30070    0.56630    0.56010    1.000
    H130     H        0.33890    0.55740    0.59200    1.000
    C174     C        0.11210    0.70640    0.52940    1.000
    C175     C        0.04100    0.70580    0.49260    1.000
    H131     H        0.03310    0.66250    0.46420    1.000
    C176     C        0.98150    0.76890    0.49760    1.000
    H132     H        0.93300    0.76680    0.47360    1.000
    C177     C        0.99360    0.83500    0.53790    1.000
    H133     H        0.95370    0.87780    0.54070    1.000
    C178     C        0.06580    0.83780    0.57450    1.000
    C179     C        0.12420    0.77360    0.57000    1.000
    H134     H        0.17240    0.77520    0.59440    1.000
    C180     C        0.07400    0.90800    0.61829    1.000
    C181     C        0.12480    0.00420    0.68024    1.000
    C182     C        0.18680    0.05960    0.71076    1.000
    C183     C        0.21770    0.04330    0.77000    1.000
    H135     H        0.20000    0.99590    0.79170    1.000
    C184     C        0.27460    0.09840    0.79590    1.000
    H136     H        0.29380    0.08880    0.83590    1.000
    C185     C        0.30380    0.16760    0.76370    1.000
    H137     H        0.34310    0.20350    0.78180    1.000
    C186     C        0.27460    0.18390    0.70400    1.000
    C187     C        0.21590    0.12960    0.67860    1.000
    H138     H        0.19530    0.14020    0.63910    1.000
    C188     C        0.30660    0.25630    0.66650    1.000
    C189     C        0.26300    0.28370    0.61450    1.000
    H139     H        0.21010    0.26170    0.60540    1.000
    C190     C        0.29800    0.34280    0.57700    1.000
    H140     H        0.26810    0.35880    0.54200    1.000
    C191     C        0.41170    0.35880    0.64020    1.000
    H141     H        0.46130    0.38650    0.65060    1.000
    C192     C        0.38170    0.29850    0.68020    1.000
    H142     H        0.41120    0.28580    0.71610    1.000
    N43      N        0.01010    0.94630    0.64445    1.000
    N44      N        0.04230    0.00670    0.68369    1.000
    N45      N        0.14710    0.94290    0.63952    1.000
    N46      N        0.22910    0.92280    0.61970    1.000
    H143     H        0.25860    0.90350    0.65170    1.000
    H144     H        0.25390    0.96880    0.60470    1.000
    N47      N        0.31130    0.52330    0.50825    1.000
    N48      N        0.37350    0.37990    0.58724    1.000
    Cd1      Cd       0.94014    0.05986    0.75000    1.000
    Cd2      Cd       0.05986    0.94014    0.25000    1.000
    Cd3      Cd       0.44014    0.44014    0.50000    1.000
    Cd4      Cd       0.55986    0.55986    0.00000    1.000
