# CIF file generated by openbabel 3.1.0, see https://openbabel.org
data_I
_chemical_name_common 'image0'
_cell_length_a 13.657
_cell_length_b 18.686
_cell_length_c 31.503
_cell_angle_alpha 90
_cell_angle_beta 101.532
_cell_angle_gamma 90
_space_group_name_H-M_alt 'P 1'
_space_group_name_Hall 'P 1'
loop_
    _symmetry_equiv_pos_as_xyz
    x,y,z
loop_
    _atom_site_label
    _atom_site_type_symbol
    _atom_site_fract_x
    _atom_site_fract_y
    _atom_site_fract_z
    _atom_site_occupancy
    Cu1      Cu       0.80976    0.28179    0.22732    1.000
    O1       O        0.94660    0.07294    0.44649    1.000
    O2       O        0.11120    0.07172    0.47368    1.000
    O3       O        0.91260    0.24880    0.27533    1.000
    O4       O        0.81290    0.19547    0.31376    1.000
    O5       O        0.79030    0.36838    0.25983    1.000
    O6       O        0.69340    0.31378    0.29947    1.000
    N1       N        0.58060    0.18270    0.30805    1.000
    N2       N        0.26150    0.19140    0.35640    1.000
    C1       C        0.58520    0.20540    0.34850    1.000
    H1       H        0.64570    0.22610    0.36160    1.000
    C2       C        0.51320    0.20300    0.37420    1.000
    H2       H        0.52430    0.21830    0.40280    1.000
    C3       C        0.42220    0.17490    0.35200    1.000
    C4       C        0.41510    0.14780    0.30990    1.000
    H3       H        0.35510    0.12780    0.29570    1.000
    C5       C        0.49660    0.15000    0.28850    1.000
    H4       H        0.49180    0.12920    0.26140    1.000
    C6       C        0.34500    0.17190    0.37870    1.000
    C7       C        0.16390    0.18230    0.36616    1.000
    C8       C        0.14800    0.14850    0.40326    1.000
    H5       H        0.20220    0.13520    0.42470    1.000
    C9       C        0.05160    0.13450    0.40859    1.000
    C10      C        0.97190    0.15670    0.37820    1.000
    H6       H        0.90750    0.14760    0.38230    1.000
    C11      C        0.98530    0.19250    0.34136    1.000
    C12      C        0.08040    0.20610    0.33518    1.000
    H7       H        0.08980    0.23080    0.31070    1.000
    C13      C        0.03500    0.08990    0.44624    1.000
    C14      C        0.89670    0.21470    0.30833    1.000
    C15      C        0.68530    0.43610    0.34800    1.000
    H8       H        0.67200    0.39320    0.36070    1.000
    C16      C        0.72500    0.43530    0.31075    1.000
    C17      C        0.73820    0.36770    0.28863    1.000
    H9       H        0.37230    0.17700    0.40750    1.000
    Cu2      Cu       0.30976    0.78179    0.72732    1.000
    O7       O        0.44660    0.57294    0.94649    1.000
    O8       O        0.61120    0.57172    0.97368    1.000
    O9       O        0.41260    0.74880    0.77533    1.000
    O10      O        0.31290    0.69547    0.81376    1.000
    O11      O        0.29030    0.86838    0.75983    1.000
    O12      O        0.19340    0.81378    0.79947    1.000
    N3       N        0.08060    0.68270    0.80805    1.000
    N4       N        0.76150    0.69140    0.85640    1.000
    C18      C        0.08520    0.70540    0.84850    1.000
    H10      H        0.14570    0.72610    0.86160    1.000
    C19      C        0.01320    0.70300    0.87420    1.000
    H11      H        0.02430    0.71830    0.90280    1.000
    C20      C        0.92220    0.67490    0.85200    1.000
    C21      C        0.91510    0.64780    0.80990    1.000
    H12      H        0.85510    0.62780    0.79570    1.000
    C22      C        0.99660    0.65000    0.78850    1.000
    H13      H        0.99180    0.62920    0.76140    1.000
    C23      C        0.84500    0.67190    0.87870    1.000
    C24      C        0.66390    0.68230    0.86616    1.000
    C25      C        0.64800    0.64850    0.90326    1.000
    H14      H        0.70220    0.63520    0.92470    1.000
    C26      C        0.55160    0.63450    0.90859    1.000
    C27      C        0.47190    0.65670    0.87820    1.000
    H15      H        0.40750    0.64760    0.88230    1.000
    C28      C        0.48530    0.69250    0.84136    1.000
    C29      C        0.58040    0.70610    0.83518    1.000
    H16      H        0.58980    0.73080    0.81070    1.000
    C30      C        0.53500    0.58990    0.94624    1.000
    C31      C        0.39670    0.71470    0.80833    1.000
    C32      C        0.18530    0.93610    0.84800    1.000
    H17      H        0.17200    0.89320    0.86070    1.000
    C33      C        0.22500    0.93530    0.81075    1.000
    C34      C        0.23820    0.86770    0.78863    1.000
    H18      H        0.87230    0.67700    0.90750    1.000
    Cu3      Cu       0.19024    0.28179    0.77268    1.000
    O13      O        0.05340    0.07294    0.55351    1.000
    O14      O        0.88880    0.07172    0.52632    1.000
    O15      O        0.08740    0.24880    0.72467    1.000
    O16      O        0.18710    0.19547    0.68624    1.000
    O17      O        0.20970    0.36838    0.74017    1.000
    O18      O        0.30660    0.31378    0.70053    1.000
    N5       N        0.41940    0.18270    0.69195    1.000
    N6       N        0.73850    0.19140    0.64360    1.000
    C35      C        0.41480    0.20540    0.65150    1.000
    H19      H        0.35430    0.22610    0.63840    1.000
    C36      C        0.48680    0.20300    0.62580    1.000
    H20      H        0.47570    0.21830    0.59720    1.000
    C37      C        0.57780    0.17490    0.64800    1.000
    C38      C        0.58490    0.14780    0.69010    1.000
    H21      H        0.64490    0.12780    0.70430    1.000
    C39      C        0.50340    0.15000    0.71150    1.000
    H22      H        0.50820    0.12920    0.73860    1.000
    C40      C        0.65500    0.17190    0.62130    1.000
    C41      C        0.83610    0.18230    0.63384    1.000
    C42      C        0.85200    0.14850    0.59674    1.000
    H23      H        0.79780    0.13520    0.57530    1.000
    C43      C        0.94840    0.13450    0.59141    1.000
    C44      C        0.02810    0.15670    0.62180    1.000
    H24      H        0.09250    0.14760    0.61770    1.000
    C45      C        0.01470    0.19250    0.65864    1.000
    C46      C        0.91960    0.20610    0.66482    1.000
    H25      H        0.91020    0.23080    0.68930    1.000
    C47      C        0.96500    0.08990    0.55376    1.000
    C48      C        0.10330    0.21470    0.69167    1.000
    C49      C        0.31470    0.43610    0.65200    1.000
    H26      H        0.32800    0.39320    0.63930    1.000
    C50      C        0.27500    0.43530    0.68925    1.000
    C51      C        0.26180    0.36770    0.71137    1.000
    H27      H        0.62770    0.17700    0.59250    1.000
    Cu4      Cu       0.69024    0.78179    0.27268    1.000
    O19      O        0.55340    0.57294    0.05351    1.000
    O20      O        0.38880    0.57172    0.02632    1.000
    O21      O        0.58740    0.74880    0.22467    1.000
    O22      O        0.68710    0.69547    0.18624    1.000
    O23      O        0.70970    0.86838    0.24017    1.000
    O24      O        0.80660    0.81378    0.20053    1.000
    N7       N        0.91940    0.68270    0.19195    1.000
    N8       N        0.23850    0.69140    0.14360    1.000
    C52      C        0.91480    0.70540    0.15150    1.000
    H28      H        0.85430    0.72610    0.13840    1.000
    C53      C        0.98680    0.70300    0.12580    1.000
    H29      H        0.97570    0.71830    0.09720    1.000
    C54      C        0.07780    0.67490    0.14800    1.000
    C55      C        0.08490    0.64780    0.19010    1.000
    H30      H        0.14490    0.62780    0.20430    1.000
    C56      C        0.00340    0.65000    0.21150    1.000
    H31      H        0.00820    0.62920    0.23860    1.000
    C57      C        0.15500    0.67190    0.12130    1.000
    C58      C        0.33610    0.68230    0.13384    1.000
    C59      C        0.35200    0.64850    0.09674    1.000
    H32      H        0.29780    0.63520    0.07530    1.000
    C60      C        0.44840    0.63450    0.09141    1.000
    C61      C        0.52810    0.65670    0.12180    1.000
    H33      H        0.59250    0.64760    0.11770    1.000
    C62      C        0.51470    0.69250    0.15864    1.000
    C63      C        0.41960    0.70610    0.16482    1.000
    H34      H        0.41020    0.73080    0.18930    1.000
    C64      C        0.46500    0.58990    0.05376    1.000
    C65      C        0.60330    0.71470    0.19167    1.000
    C66      C        0.81470    0.93610    0.15200    1.000
    H35      H        0.82800    0.89320    0.13930    1.000
    C67      C        0.77500    0.93530    0.18925    1.000
    C68      C        0.76180    0.86770    0.21137    1.000
    H36      H        0.12770    0.67700    0.09250    1.000
    Cu5      Cu       0.19024    0.71821    0.77268    1.000
    O25      O        0.05340    0.92706    0.55351    1.000
    O26      O        0.88880    0.92828    0.52632    1.000
    O27      O        0.08740    0.75120    0.72467    1.000
    O28      O        0.18710    0.80453    0.68624    1.000
    O29      O        0.20970    0.63162    0.74017    1.000
    O30      O        0.30660    0.68622    0.70053    1.000
    N9       N        0.41940    0.81730    0.69195    1.000
    N10      N        0.73850    0.80860    0.64360    1.000
    C69      C        0.41480    0.79460    0.65150    1.000
    H37      H        0.35430    0.77390    0.63840    1.000
    C70      C        0.48680    0.79700    0.62580    1.000
    H38      H        0.47570    0.78170    0.59720    1.000
    C71      C        0.57780    0.82510    0.64800    1.000
    C72      C        0.58490    0.85220    0.69010    1.000
    H39      H        0.64490    0.87220    0.70430    1.000
    C73      C        0.50340    0.85000    0.71150    1.000
    H40      H        0.50820    0.87080    0.73860    1.000
    C74      C        0.65500    0.82810    0.62130    1.000
    C75      C        0.83610    0.81770    0.63384    1.000
    C76      C        0.85200    0.85150    0.59674    1.000
    H41      H        0.79780    0.86480    0.57530    1.000
    C77      C        0.94840    0.86550    0.59141    1.000
    C78      C        0.02810    0.84330    0.62180    1.000
    H42      H        0.09250    0.85240    0.61770    1.000
    C79      C        0.01470    0.80750    0.65864    1.000
    C80      C        0.91960    0.79390    0.66482    1.000
    H43      H        0.91020    0.76920    0.68930    1.000
    C81      C        0.96500    0.91010    0.55376    1.000
    C82      C        0.10330    0.78530    0.69167    1.000
    C83      C        0.31470    0.56390    0.65200    1.000
    H44      H        0.32800    0.60680    0.63930    1.000
    C84      C        0.27500    0.56470    0.68925    1.000
    C85      C        0.26180    0.63230    0.71137    1.000
    H45      H        0.62770    0.82300    0.59250    1.000
    Cu6      Cu       0.69024    0.21821    0.27268    1.000
    O31      O        0.55340    0.42706    0.05351    1.000
    O32      O        0.38880    0.42828    0.02632    1.000
    O33      O        0.58740    0.25120    0.22467    1.000
    O34      O        0.68710    0.30453    0.18624    1.000
    O35      O        0.70970    0.13162    0.24017    1.000
    O36      O        0.80660    0.18622    0.20053    1.000
    N11      N        0.91940    0.31730    0.19195    1.000
    N12      N        0.23850    0.30860    0.14360    1.000
    C86      C        0.91480    0.29460    0.15150    1.000
    H46      H        0.85430    0.27390    0.13840    1.000
    C87      C        0.98680    0.29700    0.12580    1.000
    H47      H        0.97570    0.28170    0.09720    1.000
    C88      C        0.07780    0.32510    0.14800    1.000
    C89      C        0.08490    0.35220    0.19010    1.000
    H48      H        0.14490    0.37220    0.20430    1.000
    C90      C        0.00340    0.35000    0.21150    1.000
    H49      H        0.00820    0.37080    0.23860    1.000
    C91      C        0.15500    0.32810    0.12130    1.000
    C92      C        0.33610    0.31770    0.13384    1.000
    C93      C        0.35200    0.35150    0.09674    1.000
    H50      H        0.29780    0.36480    0.07530    1.000
    C94      C        0.44840    0.36550    0.09141    1.000
    C95      C        0.52810    0.34330    0.12180    1.000
    H51      H        0.59250    0.35240    0.11770    1.000
    C96      C        0.51470    0.30750    0.15864    1.000
    C97      C        0.41960    0.29390    0.16482    1.000
    H52      H        0.41020    0.26920    0.18930    1.000
    C98      C        0.46500    0.41010    0.05376    1.000
    C99      C        0.60330    0.28530    0.19167    1.000
    C100     C        0.81470    0.06390    0.15200    1.000
    H53      H        0.82800    0.10680    0.13930    1.000
    C101     C        0.77500    0.06470    0.18925    1.000
    C102     C        0.76180    0.13230    0.21137    1.000
    H54      H        0.12770    0.32300    0.09250    1.000
    Cu7      Cu       0.80976    0.71821    0.22732    1.000
    O37      O        0.94660    0.92706    0.44649    1.000
    O38      O        0.11120    0.92828    0.47368    1.000
    O39      O        0.91260    0.75120    0.27533    1.000
    O40      O        0.81290    0.80453    0.31376    1.000
    O41      O        0.79030    0.63162    0.25983    1.000
    O42      O        0.69340    0.68622    0.29947    1.000
    N13      N        0.58060    0.81730    0.30805    1.000
    N14      N        0.26150    0.80860    0.35640    1.000
    C103     C        0.58520    0.79460    0.34850    1.000
    H55      H        0.64570    0.77390    0.36160    1.000
    C104     C        0.51320    0.79700    0.37420    1.000
    H56      H        0.52430    0.78170    0.40280    1.000
    C105     C        0.42220    0.82510    0.35200    1.000
    C106     C        0.41510    0.85220    0.30990    1.000
    H57      H        0.35510    0.87220    0.29570    1.000
    C107     C        0.49660    0.85000    0.28850    1.000
    H58      H        0.49180    0.87080    0.26140    1.000
    C108     C        0.34500    0.82810    0.37870    1.000
    C109     C        0.16390    0.81770    0.36616    1.000
    C110     C        0.14800    0.85150    0.40326    1.000
    H59      H        0.20220    0.86480    0.42470    1.000
    C111     C        0.05160    0.86550    0.40859    1.000
    C112     C        0.97190    0.84330    0.37820    1.000
    H60      H        0.90750    0.85240    0.38230    1.000
    C113     C        0.98530    0.80750    0.34136    1.000
    C114     C        0.08040    0.79390    0.33518    1.000
    H61      H        0.08980    0.76920    0.31070    1.000
    C115     C        0.03500    0.91010    0.44624    1.000
    C116     C        0.89670    0.78530    0.30833    1.000
    C117     C        0.68530    0.56390    0.34800    1.000
    H62      H        0.67200    0.60680    0.36070    1.000
    C118     C        0.72500    0.56470    0.31075    1.000
    C119     C        0.73820    0.63230    0.28863    1.000
    H63      H        0.37230    0.82300    0.40750    1.000
    Cu8      Cu       0.30976    0.21821    0.72732    1.000
    O43      O        0.44660    0.42706    0.94649    1.000
    O44      O        0.61120    0.42828    0.97368    1.000
    O45      O        0.41260    0.25120    0.77533    1.000
    O46      O        0.31290    0.30453    0.81376    1.000
    O47      O        0.29030    0.13162    0.75983    1.000
    O48      O        0.19340    0.18622    0.79947    1.000
    N15      N        0.08060    0.31730    0.80805    1.000
    N16      N        0.76150    0.30860    0.85640    1.000
    C120     C        0.08520    0.29460    0.84850    1.000
    H64      H        0.14570    0.27390    0.86160    1.000
    C121     C        0.01320    0.29700    0.87420    1.000
    H65      H        0.02430    0.28170    0.90280    1.000
    C122     C        0.92220    0.32510    0.85200    1.000
    C123     C        0.91510    0.35220    0.80990    1.000
    H66      H        0.85510    0.37220    0.79570    1.000
    C124     C        0.99660    0.35000    0.78850    1.000
    H67      H        0.99180    0.37080    0.76140    1.000
    C125     C        0.84500    0.32810    0.87870    1.000
    C126     C        0.66390    0.31770    0.86616    1.000
    C127     C        0.64800    0.35150    0.90326    1.000
    H68      H        0.70220    0.36480    0.92470    1.000
    C128     C        0.55160    0.36550    0.90859    1.000
    C129     C        0.47190    0.34330    0.87820    1.000
    H69      H        0.40750    0.35240    0.88230    1.000
    C130     C        0.48530    0.30750    0.84136    1.000
    C131     C        0.58040    0.29390    0.83518    1.000
    H70      H        0.58980    0.26920    0.81070    1.000
    C132     C        0.53500    0.41010    0.94624    1.000
    C133     C        0.39670    0.28530    0.80833    1.000
    C134     C        0.18530    0.06390    0.84800    1.000
    H71      H        0.17200    0.10680    0.86070    1.000
    C135     C        0.22500    0.06470    0.81075    1.000
    C136     C        0.23820    0.13230    0.78863    1.000
    H72      H        0.87230    0.32300    0.90750    1.000
    Cu9      Cu       0.90308    0.00000    0.48305    1.000
    Cu10     Cu       0.40308    0.50000    0.98305    1.000
    Cu11     Cu       0.09692    0.00000    0.51695    1.000
    Cu12     Cu       0.59692    0.50000    0.01695    1.000
    N17      N        0.64260    0.50000    0.41180    1.000
    C137     C        0.66560    0.50000    0.36610    1.000
    C138     C        0.74470    0.50000    0.29200    1.000
    H73      H        0.77090    0.50000    0.26690    1.000
    N18      N        0.14260    0.00000    0.91180    1.000
    C139     C        0.16560    0.00000    0.86610    1.000
    C140     C        0.24470    0.00000    0.79200    1.000
    H74      H        0.27090    0.00000    0.76690    1.000
    N19      N        0.35740    0.50000    0.58820    1.000
    C141     C        0.33440    0.50000    0.63390    1.000
    C142     C        0.25530    0.50000    0.70800    1.000
    H75      H        0.22910    0.50000    0.73310    1.000
    N20      N        0.85740    0.00000    0.08820    1.000
    C143     C        0.83440    0.00000    0.13390    1.000
    C144     C        0.75530    0.00000    0.20800    1.000
    H76      H        0.72910    0.00000    0.23310    1.000
