# CIF file generated by openbabel 3.1.0, see https://openbabel.org
data_I
_chemical_name_common 'image0'
_cell_length_a 9.909
_cell_length_b 10.337
_cell_length_c 13.558
_cell_angle_alpha 81.95
_cell_angle_beta 86.55
_cell_angle_gamma 65.69
_space_group_name_H-M_alt 'P 1'
_space_group_name_Hall 'P 1'
loop_
    _symmetry_equiv_pos_as_xyz
    x,y,z
loop_
    _atom_site_label
    _atom_site_type_symbol
    _atom_site_fract_x
    _atom_site_fract_y
    _atom_site_fract_z
    _atom_site_occupancy
    Eu1      Eu       0.33358    0.21705    0.18363    1.000
    Mo1      Mo       0.74388    0.62387    0.24067    1.000
    O1       O        0.35160    0.44760    0.18450    1.000
    H1       H        0.45420    0.42590    0.20130    1.000
    N1       N        0.90490    0.33960    0.40530    1.000
    N2       N        0.75010    0.73690    0.45710    1.000
    N3       N        0.43350    0.60940    0.33190    1.000
    N4       N        0.48480    0.95430    0.20800    1.000
    N5       N        0.67820    0.37370    0.14900    1.000
    N6       N        0.29320    0.27990    0.00230    1.000
    N7       N        0.08030    0.41550    0.17040    1.000
    N8       N        0.94560    0.81580    0.20220    1.000
    C1       C        0.84320    0.43860    0.35010    1.000
    C2       C        0.74590    0.70010    0.38090    1.000
    C3       C        0.54290    0.61620    0.30330    1.000
    C4       C        0.57260    0.84080    0.21960    1.000
    C5       C        0.70380    0.46150    0.17790    1.000
    C6       C        0.28170    0.31300    0.91870    1.000
    C7       C        0.96220    0.49080    0.18960    1.000
    C8       C        0.87230    0.75290    0.21350    1.000
    C9       C        0.30710    0.56550    0.10310    1.000
    H2       H        0.37330    0.53830    0.04770    1.000
    H3       H        0.31080    0.64830    0.12520    1.000
    H4       H        0.20800    0.58750    0.08300    1.000
    Cs1      Cs       0.14858    0.55056    0.38407    1.000
    Eu2      Eu       0.66642    0.78295    0.81637    1.000
    Mo2      Mo       0.25612    0.37613    0.75933    1.000
    O2       O        0.64840    0.55240    0.81550    1.000
    H5       H        0.54580    0.57410    0.79870    1.000
    N9       N        0.09510    0.66040    0.59470    1.000
    N10      N        0.24990    0.26310    0.54290    1.000
    N11      N        0.56650    0.39060    0.66810    1.000
    N12      N        0.51520    0.04570    0.79200    1.000
    N13      N        0.32180    0.62630    0.85100    1.000
    N14      N        0.70680    0.72010    0.99770    1.000
    N15      N        0.91970    0.58450    0.82960    1.000
    N16      N        0.05440    0.18420    0.79780    1.000
    C10      C        0.15680    0.56140    0.64990    1.000
    C11      C        0.25410    0.29990    0.61910    1.000
    C12      C        0.45710    0.38380    0.69670    1.000
    C13      C        0.42740    0.15920    0.78040    1.000
    C14      C        0.29620    0.53850    0.82210    1.000
    C15      C        0.71830    0.68700    0.08130    1.000
    C16      C        0.03780    0.50920    0.81040    1.000
    C17      C        0.12770    0.24710    0.78650    1.000
    C18      C        0.69290    0.43450    0.89690    1.000
    H6       H        0.62670    0.46170    0.95230    1.000
    H7       H        0.68920    0.35170    0.87480    1.000
    H8       H        0.79200    0.41250    0.91700    1.000
    Cs2      Cs       0.85142    0.44944    0.61593    1.000
