# CIF file generated by openbabel 3.1.0, see https://openbabel.org
data_I
_chemical_name_common 'image0'
_cell_length_a 10.7673
_cell_length_b 11.0209
_cell_length_c 13.0918
_cell_angle_alpha 105.064
_cell_angle_beta 94.854
_cell_angle_gamma 93.847
_space_group_name_H-M_alt 'P 1'
_space_group_name_Hall 'P 1'
loop_
    _symmetry_equiv_pos_as_xyz
    x,y,z
loop_
    _atom_site_label
    _atom_site_type_symbol
    _atom_site_fract_x
    _atom_site_fract_y
    _atom_site_fract_z
    _atom_site_occupancy
    Dy1      Dy       0.03020    0.55128    0.17541    1.000
    C1       C        0.99540    0.73880    0.00920    1.000
    C2       C        0.01180    0.76710    0.33520    1.000
    C3       C        0.23280    0.51920    0.98570    1.000
    C4       C        0.99830    0.87500    0.00710    1.000
    C5       C        0.00420    0.88760    0.42020    1.000
    C6       C        0.37150    0.51000    0.99110    1.000
    C7       C        0.10800    0.93490    0.98520    1.000
    C8       C        0.05090    0.00070    0.40520    1.000
    C9       C        0.42540    0.43460    0.90730    1.000
    C10      C        0.22110    0.87700    0.97500    1.000
    H1       H        0.22410    0.79630    0.98410    1.000
    C11      C        0.09920    0.00760    0.30540    1.000
    H2       H        0.09920    0.93470    0.25030    1.000
    C12      C        0.44760    0.57400    0.08120    1.000
    H3       H        0.41160    0.62530    0.13700    1.000
    C13      C        0.32430    0.93560    0.95250    1.000
    H4       H        0.39660    0.89390    0.94420    1.000
    C14      C        0.14470    0.12200    0.29310    1.000
    H5       H        0.17590    0.12540    0.22970    1.000
    C15      C        0.32510    0.05880    0.94140    1.000
    H6       H        0.39780    0.09910    0.92730    1.000
    C16      C        0.14490    0.23450    0.37500    1.000
    H7       H        0.17840    0.31080    0.36630    1.000
    C17      C        0.21980    0.11830    0.95150    1.000
    H8       H        0.22030    0.19880    0.94130    1.000
    C18      C        0.09520    0.23070    0.46750    1.000
    H9       H        0.09180    0.30570    0.51960    1.000
    C19      C        0.89270    0.93800    0.02270    1.000
    C20      C        0.95140    0.88550    0.51410    1.000
    N1       N        0.35100    0.36000    0.81380    1.000
    H10      H        0.38540    0.31000    0.76470    1.000
    H11      H        0.27140    0.36540    0.80660    1.000
    O1       O        0.00920    0.71730    0.09650    1.000
    O2       O        0.91140    0.70720    0.28790    1.000
    O3       O        0.18870    0.55810    0.07210    1.000
    O4       O        0.97750    0.65870    0.92200    1.000
    O5       O        0.11620    0.72880    0.31720    1.000
    O6       O        0.17240    0.49250    0.89840    1.000
    Dy2      Dy       0.96980    0.44872    0.82459    1.000
    C21      C        0.00460    0.26120    0.99080    1.000
    C22      C        0.98820    0.23290    0.66480    1.000
    C23      C        0.76720    0.48080    0.01430    1.000
    C24      C        0.00170    0.12500    0.99290    1.000
    C25      C        0.99580    0.11240    0.57980    1.000
    C26      C        0.62850    0.49000    0.00890    1.000
    C27      C        0.89200    0.06510    0.01480    1.000
    C28      C        0.94910    0.99930    0.59480    1.000
    C29      C        0.57460    0.56540    0.09270    1.000
    C30      C        0.77890    0.12300    0.02500    1.000
    H12      H        0.77590    0.20370    0.01590    1.000
    C31      C        0.90080    0.99240    0.69460    1.000
    H13      H        0.90080    0.06530    0.74970    1.000
    C32      C        0.55240    0.42600    0.91880    1.000
    H14      H        0.58840    0.37470    0.86300    1.000
    C33      C        0.67570    0.06440    0.04750    1.000
    H15      H        0.60340    0.10610    0.05580    1.000
    C34      C        0.85530    0.87800    0.70690    1.000
    H16      H        0.82410    0.87460    0.77030    1.000
    C35      C        0.67490    0.94120    0.05860    1.000
    H17      H        0.60220    0.90090    0.07270    1.000
    C36      C        0.85510    0.76550    0.62500    1.000
    H18      H        0.82160    0.68920    0.63370    1.000
    C37      C        0.78020    0.88170    0.04850    1.000
    H19      H        0.77970    0.80120    0.05870    1.000
    C38      C        0.90480    0.76930    0.53250    1.000
    H20      H        0.90820    0.69430    0.48040    1.000
    C39      C        0.10730    0.06200    0.97730    1.000
    C40      C        0.04860    0.11450    0.48590    1.000
    N2       N        0.64900    0.64000    0.18620    1.000
    H21      H        0.61460    0.69000    0.23530    1.000
    H22      H        0.72860    0.63460    0.19340    1.000
    O7       O        0.99080    0.28270    0.90350    1.000
    O8       O        0.08860    0.29280    0.71210    1.000
    O9       O        0.81130    0.44190    0.92790    1.000
    O10      O        0.02250    0.34130    0.07800    1.000
    O11      O        0.88380    0.27120    0.68280    1.000
    O12      O        0.82760    0.50750    0.10160    1.000
