# CIF file generated by openbabel 3.1.0, see https://openbabel.org
data_I
_chemical_name_common 'image0'
_cell_length_a 6.5668
_cell_length_b 16.3971
_cell_length_c 13.2021
_cell_angle_alpha 90
_cell_angle_beta 90
_cell_angle_gamma 90.139
_space_group_name_H-M_alt 'P 1'
_space_group_name_Hall 'P 1'
loop_
    _symmetry_equiv_pos_as_xyz
    x,y,z
loop_
    _atom_site_label
    _atom_site_type_symbol
    _atom_site_fract_x
    _atom_site_fract_y
    _atom_site_fract_z
    _atom_site_occupancy
    O1       O        0.16090    0.16920    0.84860    1.000
    O2       O        0.82060    0.66520    0.17010    1.000
    C1       C        0.81130    0.02460    0.95780    1.000
    C2       C        0.98710    0.06680    0.94280    1.000
    C3       C        0.00200    0.13690    0.86960    1.000
    C4       C        0.20280    0.53330    0.03570    1.000
    O3       O        0.66090    0.66920    0.34860    1.000
    O4       O        0.32060    0.16520    0.67010    1.000
    C5       C        0.31130    0.52460    0.45780    1.000
    C6       C        0.48710    0.56680    0.44280    1.000
    C7       C        0.50200    0.63690    0.36960    1.000
    C8       C        0.70280    0.03330    0.53570    1.000
    O5       O        0.83910    0.33080    0.84860    1.000
    O6       O        0.17940    0.83480    0.17010    1.000
    C9       C        0.18870    0.47540    0.95780    1.000
    C10      C        0.01290    0.43320    0.94280    1.000
    C11      C        0.99800    0.36310    0.86960    1.000
    C12      C        0.79720    0.96670    0.03570    1.000
    O7       O        0.33910    0.83080    0.34860    1.000
    O8       O        0.67940    0.33480    0.67010    1.000
    C13      C        0.68870    0.97540    0.45780    1.000
    C14      C        0.51290    0.93320    0.44280    1.000
    C15      C        0.49800    0.86310    0.36960    1.000
    C16      C        0.29720    0.46670    0.53570    1.000
    O9       O        0.83910    0.83080    0.15140    1.000
    O10      O        0.17940    0.33480    0.82990    1.000
    C17      C        0.18870    0.97540    0.04220    1.000
    C18      C        0.01290    0.93320    0.05720    1.000
    C19      C        0.99800    0.86310    0.13040    1.000
    C20      C        0.79720    0.46670    0.96430    1.000
    O11      O        0.33910    0.33080    0.65140    1.000
    O12      O        0.67940    0.83480    0.32990    1.000
    C21      C        0.68870    0.47540    0.54220    1.000
    C22      C        0.51290    0.43320    0.55720    1.000
    C23      C        0.49800    0.36310    0.63040    1.000
    C24      C        0.29720    0.96670    0.46430    1.000
    O13      O        0.16090    0.66920    0.15140    1.000
    O14      O        0.82060    0.16520    0.82990    1.000
    C25      C        0.81130    0.52460    0.04220    1.000
    C26      C        0.98710    0.56680    0.05720    1.000
    C27      C        0.00200    0.63690    0.13040    1.000
    C28      C        0.20280    0.03330    0.96430    1.000
    O15      O        0.66090    0.16920    0.65140    1.000
    O16      O        0.32060    0.66520    0.32990    1.000
    C29      C        0.31130    0.02460    0.54220    1.000
    C30      C        0.48710    0.06680    0.55720    1.000
    C31      C        0.50200    0.13690    0.63040    1.000
    C32      C        0.70280    0.53330    0.46430    1.000
    Al1      Al       0.25000    0.25000    0.75000    1.000
    Al2      Al       0.75000    0.25000    0.75000    1.000
    Al3      Al       0.75000    0.75000    0.25000    1.000
    Al4      Al       0.25000    0.75000    0.25000    1.000
    F1       F        0.00000    0.25000    0.69070    1.000
    F2       F        0.50000    0.75000    0.19070    1.000
    F3       F        0.00000    0.75000    0.30930    1.000
    F4       F        0.50000    0.25000    0.80930    1.000
