# CIF file generated by openbabel 3.1.0, see https://openbabel.org
data_I
_chemical_name_common 'image0'
_cell_length_a 11.4422
_cell_length_b 13.6499
_cell_length_c 23.9769
_cell_angle_alpha 92.915
_cell_angle_beta 103.671
_cell_angle_gamma 112.821
_space_group_name_H-M_alt 'P 1'
_space_group_name_Hall 'P 1'
loop_
    _symmetry_equiv_pos_as_xyz
    x,y,z
loop_
    _atom_site_label
    _atom_site_type_symbol
    _atom_site_fract_x
    _atom_site_fract_y
    _atom_site_fract_z
    _atom_site_occupancy
    Eu1      Eu       0.37634    0.29865    0.51752    1.000
    Eu2      Eu       0.64560    0.59734    0.96192    1.000
    C1       C        0.70800    0.50100    0.07630    1.000
    C2       C        0.78280    0.47360    0.12870    1.000
    C3       C        0.72100    0.38170    0.15140    1.000
    H1       H        0.63170    0.33930    0.13550    1.000
    C4       C        0.79200    0.35320    0.19690    1.000
    H2       H        0.75060    0.28970    0.21060    1.000
    C5       C        0.92430    0.41850    0.22290    1.000
    C6       C        0.01950    0.41320    0.27280    1.000
    C7       C        0.00900    0.33840    0.31110    1.000
    H3       H        0.93200    0.27630    0.30440    1.000
    C8       C        0.11400    0.35670    0.35850    1.000
    H4       H        0.10700    0.30660    0.38380    1.000
    C9       C        0.23040    0.44930    0.36920    1.000
    C10      C        0.34260    0.47220    0.42120    1.000
    C11      C        0.24280    0.52220    0.33090    1.000
    H5       H        0.32140    0.58300    0.33720    1.000
    C12      C        0.13810    0.50440    0.28340    1.000
    C13      C        0.12620    0.57610    0.23700    1.000
    C14      C        0.22700    0.58400    0.20140    1.000
    H6       H        0.21950    0.51400    0.18630    1.000
    H7       H        0.31440    0.62370    0.22670    1.000
    H8       H        0.21160    0.62150    0.16950    1.000
    C15      C        0.14700    0.68600    0.26340    1.000
    H9       H        0.13070    0.72560    0.23260    1.000
    H10      H        0.23590    0.72370    0.28760    1.000
    H11      H        0.08730    0.67870    0.28670    1.000
    C16      C        0.98390    0.51210    0.20070    1.000
    C17      C        0.91450    0.53960    0.15360    1.000
    H12      H        0.95560    0.60160    0.13880    1.000
    C18      C        0.54800    0.66380    0.07500    1.000
    C19      C        0.61690    0.72000    0.13560    1.000
    C20      C        0.56800    0.69440    0.18070    1.000
    H13      H        0.48520    0.63760    0.17390    1.000
    C21      C        0.63200    0.74720    0.23590    1.000
    H14      H        0.59400    0.72670    0.26610    1.000
    C22      C        0.75600    0.83310    0.24670    1.000
    C23      C        0.84800    0.90380    0.30000    1.000
    C24      C        0.84300    0.90290    0.35760    1.000
    H15      H        0.77220    0.85120    0.36690    1.000
    C25      C        0.94650    0.98040    0.40100    1.000
    H16      H        0.94270    0.98230    0.43930    1.000
    C26      C        0.05300    0.05350    0.38790    1.000
    C27      C        0.16890    0.13820    0.43530    1.000
    C28      C        0.06070    0.05460    0.33000    1.000
    H17      H        0.13270    0.10530    0.32080    1.000
    C29      C        0.95860    0.97860    0.28840    1.000
    C30      C        0.94330    0.96310    0.22240    1.000
    C31      C        0.05200    0.93200    0.21070    1.000
    H18      H        0.05630    0.87400    0.23070    1.000
    H19      H        0.13400    0.99380    0.22440    1.000
    H20      H        0.03360    0.91130    0.16940    1.000
    C32      C        0.94800    0.06100    0.19580    1.000
    H21      H        0.92630    0.04460    0.15400    1.000
    H22      H        0.03280    0.11950    0.21010    1.000
    H23      H        0.88320    0.08230    0.20600    1.000
    C33      C        0.80840    0.86700    0.20060    1.000
    C34      C        0.74670    0.81240    0.14670    1.000
    H24      H        0.78490    0.83220    0.11660    1.000
    C35      C        0.46200    0.16050    0.58140    1.000
    C36      C        0.49660    0.08120    0.61440    1.000
    C37      C        0.53100    0.00660    0.58840    1.000
    H25      H        0.53220    0.00700    0.54970    1.000
    C38      C        0.56300    0.93240    0.61770    1.000
    H26      H        0.58740    0.88420    0.59970    1.000
    C39      C        0.55770    0.93200    0.67610    1.000
    C40      C        0.57900    0.86100    0.71630    1.000
    C41      C        0.61800    0.77450    0.71320    1.000
    H27      H        0.63480    0.75270    0.67970    1.000
    C42      C        0.63100    0.72480    0.75990    1.000
    H28      H        0.65470    0.66730    0.75710    1.000
    C43      C        0.61100    0.75320    0.81080    1.000
    C44      C        0.62700    0.70170    0.86210    1.000
    C45      C        0.57500    0.84310    0.81530    1.000
    H29      H        0.56450    0.86660    0.85020    1.000
    C46      C        0.55640    0.89380    0.76850    1.000
    C47      C        0.51730    0.98610    0.76330    1.000
    C48      C        0.61100    0.08190    0.80940    1.000
    H30      H        0.61650    0.06300    0.84790    1.000
    H31      H        0.57990    0.13820    0.80610    1.000
    H32      H        0.69590    0.10630    0.80250    1.000
    C49      C        0.37300    0.95120    0.76810    1.000
    H33      H        0.31510    0.88670    0.74110    1.000
    H34      H        0.34440    0.00770    0.75940    1.000
    H35      H        0.37170    0.93840    0.80730    1.000
    C50      C        0.52100    0.00450    0.70180    1.000
    C51      C        0.49130    0.07910    0.67220    1.000
    H36      H        0.46780    0.12780    0.69020    1.000
    O1       O        0.76960    0.56070    0.04650    1.000
    O2       O        0.58320    0.46300    0.06480    1.000
    O3       O        0.45360    0.54380    0.42350    1.000
    O4       O        0.31800    0.42030    0.46310    1.000
    O5       O        0.60640    0.69130    0.03540    1.000
    O6       O        0.43550    0.58760    0.06650    1.000
    O7       O        0.26840    0.19610    0.42130    1.000
    O8       O        0.15960    0.14630    0.48580    1.000
    O9       O        0.45700    0.15630    0.52840    1.000
    O10      O        0.43530    0.23040    0.60690    1.000
    O11      O        0.63670    0.61080    0.85790    1.000
    O12      O        0.62780    0.74160    0.91200    1.000
    Eu3      Eu       0.62366    0.70135    0.48248    1.000
    Eu4      Eu       0.35440    0.40266    0.03808    1.000
    C52      C        0.29200    0.49900    0.92370    1.000
    C53      C        0.21720    0.52640    0.87130    1.000
    C54      C        0.27900    0.61830    0.84860    1.000
    H37      H        0.36830    0.66070    0.86450    1.000
    C55      C        0.20800    0.64680    0.80310    1.000
    H38      H        0.24940    0.71030    0.78940    1.000
    C56      C        0.07570    0.58150    0.77710    1.000
    C57      C        0.98050    0.58680    0.72720    1.000
    C58      C        0.99100    0.66160    0.68890    1.000
    H39      H        0.06800    0.72370    0.69560    1.000
    C59      C        0.88600    0.64330    0.64150    1.000
    H40      H        0.89300    0.69340    0.61620    1.000
    C60      C        0.76960    0.55070    0.63080    1.000
    C61      C        0.65740    0.52780    0.57880    1.000
    C62      C        0.75720    0.47780    0.66910    1.000
    H41      H        0.67860    0.41700    0.66280    1.000
    C63      C        0.86190    0.49560    0.71660    1.000
    C64      C        0.87380    0.42390    0.76300    1.000
    C65      C        0.77300    0.41600    0.79860    1.000
    H42      H        0.78050    0.48600    0.81370    1.000
    H43      H        0.68560    0.37630    0.77330    1.000
    H44      H        0.78840    0.37850    0.83050    1.000
    C66      C        0.85300    0.31400    0.73660    1.000
    H45      H        0.86930    0.27440    0.76740    1.000
    H46      H        0.76410    0.27630    0.71240    1.000
    H47      H        0.91270    0.32130    0.71330    1.000
    C67      C        0.01610    0.48790    0.79930    1.000
    C68      C        0.08550    0.46040    0.84640    1.000
    H48      H        0.04440    0.39840    0.86120    1.000
    C69      C        0.45200    0.33620    0.92500    1.000
    C70      C        0.38310    0.28000    0.86440    1.000
    C71      C        0.43200    0.30560    0.81930    1.000
    H49      H        0.51480    0.36240    0.82610    1.000
    C72      C        0.36800    0.25280    0.76410    1.000
    H50      H        0.40600    0.27330    0.73390    1.000
    C73      C        0.24400    0.16690    0.75330    1.000
    C74      C        0.15200    0.09620    0.70000    1.000
    C75      C        0.15700    0.09710    0.64240    1.000
    H51      H        0.22780    0.14880    0.63310    1.000
    C76      C        0.05350    0.01960    0.59900    1.000
    H52      H        0.05730    0.01770    0.56070    1.000
    C77      C        0.94700    0.94650    0.61210    1.000
    C78      C        0.83110    0.86180    0.56470    1.000
    C79      C        0.93930    0.94540    0.67000    1.000
    H53      H        0.86730    0.89470    0.67920    1.000
    C80      C        0.04140    0.02140    0.71160    1.000
    C81      C        0.05670    0.03690    0.77760    1.000
    C82      C        0.94800    0.06800    0.78930    1.000
    H54      H        0.94370    0.12600    0.76930    1.000
    H55      H        0.86600    0.00620    0.77560    1.000
    H56      H        0.96640    0.08870    0.83060    1.000
    C83      C        0.05200    0.93900    0.80420    1.000
    H57      H        0.07370    0.95540    0.84600    1.000
    H58      H        0.96720    0.88050    0.78990    1.000
    H59      H        0.11680    0.91770    0.79400    1.000
    C84      C        0.19160    0.13300    0.79940    1.000
    C85      C        0.25330    0.18760    0.85330    1.000
    H60      H        0.21510    0.16780    0.88340    1.000
    C86      C        0.53800    0.83950    0.41860    1.000
    C87      C        0.50340    0.91880    0.38560    1.000
    C88      C        0.46900    0.99340    0.41160    1.000
    H61      H        0.46780    0.99300    0.45030    1.000
    C89      C        0.43700    0.06760    0.38230    1.000
    H62      H        0.41260    0.11580    0.40030    1.000
    C90      C        0.44230    0.06800    0.32390    1.000
    C91      C        0.42100    0.13900    0.28370    1.000
    C92      C        0.38200    0.22550    0.28680    1.000
    H63      H        0.36520    0.24730    0.32030    1.000
    C93      C        0.36900    0.27520    0.24010    1.000
    H64      H        0.34530    0.33270    0.24290    1.000
    C94      C        0.38900    0.24680    0.18920    1.000
    C95      C        0.37300    0.29830    0.13790    1.000
    C96      C        0.42500    0.15690    0.18470    1.000
    H65      H        0.43550    0.13340    0.14980    1.000
    C97      C        0.44360    0.10620    0.23150    1.000
    C98      C        0.48270    0.01390    0.23670    1.000
    C99      C        0.38900    0.91810    0.19060    1.000
    H66      H        0.38350    0.93700    0.15210    1.000
    H67      H        0.42010    0.86180    0.19390    1.000
    H68      H        0.30410    0.89370    0.19750    1.000
    C100     C        0.62700    0.04880    0.23190    1.000
    H69      H        0.68490    0.11330    0.25890    1.000
    H70      H        0.65560    0.99230    0.24060    1.000
    H71      H        0.62830    0.06160    0.19270    1.000
    C101     C        0.47900    0.99550    0.29820    1.000
    C102     C        0.50870    0.92090    0.32780    1.000
    H72      H        0.53220    0.87220    0.30980    1.000
    O13      O        0.23040    0.43930    0.95350    1.000
    O14      O        0.41680    0.53700    0.93520    1.000
    O15      O        0.54640    0.45620    0.57650    1.000
    O16      O        0.68200    0.57970    0.53690    1.000
    O17      O        0.39360    0.30870    0.96460    1.000
    O18      O        0.56450    0.41240    0.93350    1.000
    O19      O        0.73160    0.80390    0.57870    1.000
    O20      O        0.84040    0.85370    0.51420    1.000
    O21      O        0.54300    0.84370    0.47160    1.000
    O22      O        0.56470    0.76960    0.39310    1.000
    O23      O        0.36330    0.38920    0.14210    1.000
    O24      O        0.37220    0.25840    0.08800    1.000
