# CIF file generated by openbabel 3.1.0, see https://openbabel.org
data_I
_chemical_name_common 'image0'
_cell_length_a 11.5976
_cell_length_b 12.213
_cell_length_c 13.5187
_cell_angle_alpha 65.039
_cell_angle_beta 68.351
_cell_angle_gamma 87.858
_space_group_name_H-M_alt 'P 1'
_space_group_name_Hall 'P 1'
loop_
    _symmetry_equiv_pos_as_xyz
    x,y,z
loop_
    _atom_site_label
    _atom_site_type_symbol
    _atom_site_fract_x
    _atom_site_fract_y
    _atom_site_fract_z
    _atom_site_occupancy
    O1       O        0.97150    0.52860    0.31200    1.000
    O2       O        0.06470    0.34480    0.44430    1.000
    O3       O        0.78950    0.45340    0.57200    1.000
    O4       O        0.03930    0.68470    0.32170    1.000
    Dy1      Dy       0.07124    0.66999    0.67256    1.000
    C1       C        0.99370    0.35910    0.73350    1.000
    C2       C        0.26530    0.62780    0.43780    1.000
    O5       O        0.23620    0.55720    0.70620    1.000
    O6       O        0.97890    0.82780    0.55480    1.000
    O7       O        0.05800    0.62960    0.86920    1.000
    O8       O        0.99500    0.79990    0.77560    1.000
    O9       O        0.20820    0.69430    0.48300    1.000
    O10      O        0.23380    0.82250    0.60100    1.000
    C3       C        0.99470    0.27480    0.85220    1.000
    C4       C        0.40600    0.63830    0.39390    1.000
    C5       C        0.99740    0.15030    0.87940    1.000
    C6       C        0.99270    0.31660    0.93380    1.000
    C7       C        0.47470    0.72270    0.40300    1.000
    C8       C        0.46550    0.55330    0.35730    1.000
    C9       C        0.99830    0.06570    0.98700    1.000
    H1       H        0.99860    0.12400    0.82370    1.000
    C10      C        0.98840    0.23260    0.04370    1.000
    H2       H        0.99420    0.39930    0.91500    1.000
    C11      C        0.60130    0.71950    0.37830    1.000
    H3       H        0.43530    0.78100    0.42570    1.000
    C12      C        0.59040    0.54980    0.33220    1.000
    H4       H        0.41990    0.49830    0.34990    1.000
    C13      C        0.99420    0.10810    0.06840    1.000
    C14      C        0.97910    0.27060    0.13790    1.000
    C15      C        0.67540    0.80060    0.39740    1.000
    C16      C        0.65900    0.63430    0.34150    1.000
    C17      C        0.65430    0.44940    0.30690    1.000
    H5       H        0.99530    0.05350    0.14110    1.000
    C18      C        0.76260    0.75170    0.44880    1.000
    C19      C        0.65970    0.92150    0.37070    1.000
    H6       H        0.74460    0.63320    0.32270    1.000
    O11      O        0.58360    0.37120    0.30480    1.000
    C20      C        0.83380    0.82220    0.46970    1.000
    H7       H        0.77280    0.67020    0.46930    1.000
    H8       H        0.60190    0.95540    0.33760    1.000
    C21      C        0.72880    0.99280    0.39250    1.000
    C22      C        0.92270    0.76700    0.52830    1.000
    C23      C        0.81730    0.94330    0.44040    1.000
    C24      C        0.71160    0.12230    0.36540    1.000
    H9       H        0.86540    0.99190    0.45260    1.000
    O12      O        0.64160    0.17160    0.31150    1.000
    O13      O        0.02850    0.47140    0.68800    1.000
    O14      O        0.93530    0.65520    0.55570    1.000
    O15      O        0.21050    0.54660    0.42800    1.000
    O16      O        0.96070    0.31530    0.67830    1.000
    Dy2      Dy       0.92876    0.33001    0.32744    1.000
    C25      C        0.00630    0.64090    0.26650    1.000
    C26      C        0.73470    0.37220    0.56220    1.000
    O17      O        0.76380    0.44280    0.29380    1.000
    O18      O        0.02110    0.17220    0.44520    1.000
    O19      O        0.94200    0.37040    0.13080    1.000
    O20      O        0.00500    0.20010    0.22440    1.000
    O21      O        0.79180    0.30570    0.51700    1.000
    O22      O        0.76620    0.17750    0.39900    1.000
    C27      C        0.00530    0.72520    0.14780    1.000
    C28      C        0.59400    0.36170    0.60610    1.000
    C29      C        0.00260    0.84970    0.12060    1.000
    C30      C        0.00730    0.68340    0.06620    1.000
    C31      C        0.52530    0.27730    0.59700    1.000
    C32      C        0.53450    0.44670    0.64270    1.000
    C33      C        0.00170    0.93430    0.01300    1.000
    H10      H        0.00140    0.87600    0.17630    1.000
    C34      C        0.01160    0.76740    0.95630    1.000
    H11      H        0.00580    0.60070    0.08500    1.000
    C35      C        0.39870    0.28050    0.62170    1.000
    H12      H        0.56470    0.21900    0.57430    1.000
    C36      C        0.40960    0.45020    0.66780    1.000
    H13      H        0.58010    0.50170    0.65010    1.000
    C37      C        0.00580    0.89190    0.93160    1.000
    C38      C        0.02090    0.72940    0.86210    1.000
    C39      C        0.32460    0.19940    0.60260    1.000
    C40      C        0.34100    0.36570    0.65850    1.000
    C41      C        0.34570    0.55060    0.69310    1.000
    H14      H        0.00470    0.94650    0.85890    1.000
    C42      C        0.23740    0.24830    0.55120    1.000
    C43      C        0.34030    0.07850    0.62930    1.000
    H15      H        0.25540    0.36680    0.67730    1.000
    O23      O        0.41640    0.62880    0.69520    1.000
    C44      C        0.16620    0.17780    0.53030    1.000
    H16      H        0.22720    0.32980    0.53070    1.000
    H17      H        0.39810    0.04460    0.66240    1.000
    C45      C        0.27120    0.00720    0.60750    1.000
    C46      C        0.07730    0.23300    0.47170    1.000
    C47      C        0.18270    0.05670    0.55960    1.000
    C48      C        0.28840    0.87770    0.63460    1.000
    H18      H        0.13460    0.00810    0.54740    1.000
    O24      O        0.35840    0.82840    0.68850    1.000
    Dy3      Dy       0.00000    0.50000    0.50000    1.000
