# CIF file generated by openbabel 3.1.0, see https://openbabel.org
data_I
_chemical_name_common 'LIVTEP_charged'
_cell_length_a 8.157
_cell_length_b 10.1706
_cell_length_c 11.613
_cell_angle_alpha 90
_cell_angle_beta 90
_cell_angle_gamma 113.641
_space_group_name_H-M_alt 'P 1'
_space_group_name_Hall 'P 1'
loop_
    _symmetry_equiv_pos_as_xyz
    x,y,z
loop_
    _atom_site_label
    _atom_site_type_symbol
    _atom_site_fract_x
    _atom_site_fract_y
    _atom_site_fract_z
    _atom_site_occupancy
    Cu1      Cu       0.50000    0.00000    0.25000    1.000
    Cu2      Cu       0.50000    0.00000    0.75000    1.000
    H1       H        0.00000    0.50000    0.79830    1.000
    H2       H        0.50000    0.50000    0.70170    1.000
    H3       H        0.00000    0.50000    0.20170    1.000
    H4       H        0.50000    0.50000    0.29830    1.000
    C1       C        0.79110    0.24700    0.88060    1.000
    C2       C        0.90050    0.37640    0.94030    1.000
    C3       C        0.20890    0.75300    0.88060    1.000
    C4       C        0.09950    0.62360    0.94030    1.000
    C5       C        0.45590    0.24700    0.61940    1.000
    C6       C        0.47590    0.37640    0.55970    1.000
    C7       C        0.54410    0.75300    0.61940    1.000
    C8       C        0.52410    0.62360    0.55970    1.000
    C9       C        0.20890    0.75300    0.11940    1.000
    C10      C        0.09950    0.62360    0.05970    1.000
    C11      C        0.79110    0.24700    0.11940    1.000
    C12      C        0.90050    0.37640    0.05970    1.000
    C13      C        0.54410    0.75300    0.38060    1.000
    C14      C        0.52410    0.62360    0.44030    1.000
    C15      C        0.45590    0.24700    0.38060    1.000
    C16      C        0.47590    0.37640    0.44030    1.000
    C17      C        0.00000    0.50000    0.87840    1.000
    C18      C        0.50000    0.50000    0.62160    1.000
    C19      C        0.00000    0.50000    0.12160    1.000
    C20      C        0.50000    0.50000    0.37840    1.000
    N1       N        0.69760    0.14240    0.83840    1.000
    N2       N        0.30240    0.85760    0.83840    1.000
    N3       N        0.44480    0.14240    0.66160    1.000
    N4       N        0.55520    0.85760    0.66160    1.000
    N5       N        0.30240    0.85760    0.16160    1.000
    N6       N        0.69760    0.14240    0.16160    1.000
    N7       N        0.55520    0.85760    0.33840    1.000
    N8       N        0.44480    0.14240    0.33840    1.000
    P1       P        0.50000    0.50000    0.00000    1.000
    F1       F        0.54360    0.40880    0.90440    1.000
    F2       F        0.45640    0.59120    0.90440    1.000
    F3       F        0.45640    0.59120    0.09560    1.000
    F4       F        0.54360    0.40880    0.09560    1.000
    F5       F        0.70230    0.60360    0.00000    1.000
    F6       F        0.29770    0.39640    0.00000    1.000
    P2       P        0.00000    0.50000    0.50000    1.000
    F7       F        0.86520    0.40880    0.59560    1.000
    F8       F        0.13480    0.59120    0.59560    1.000
    F9       F        0.13480    0.59120    0.40440    1.000
    F10      F        0.86520    0.40880    0.40440    1.000
    F11      F        0.90130    0.60360    0.50000    1.000
    F12      F        0.09870    0.39640    0.50000    1.000
