# CIF file generated by openbabel 3.1.0, see https://openbabel.org
data_I
_chemical_name_common 'image0'
_cell_length_a 15.673
_cell_length_b 13.787
_cell_length_c 18.331
_cell_angle_alpha 90
_cell_angle_beta 90
_cell_angle_gamma 90
_space_group_name_H-M_alt 'P 1'
_space_group_name_Hall 'P 1'
loop_
    _symmetry_equiv_pos_as_xyz
    x,y,z
loop_
    _atom_site_label
    _atom_site_type_symbol
    _atom_site_fract_x
    _atom_site_fract_y
    _atom_site_fract_z
    _atom_site_occupancy
    N1       N        0.37085    0.50850    0.51263    1.000
    N2       N        0.36379    0.62661    0.59251    1.000
    N3       N        0.31423    0.50716    0.25276    1.000
    N4       N        0.27542    0.62254    0.17723    1.000
    C1       C        0.34918    0.30370    0.38244    1.000
    C2       C        0.36118    0.35590    0.44723    1.000
    H1       H        0.37170    0.32260    0.49170    1.000
    C3       C        0.35760    0.45610    0.44619    1.000
    C4       C        0.34310    0.50800    0.38268    1.000
    H2       H        0.34210    0.57690    0.38280    1.000
    C5       C        0.33010    0.45580    0.31900    1.000
    C6       C        0.33317    0.35580    0.31821    1.000
    H3       H        0.32430    0.32190    0.27370    1.000
    C7       C        0.33470    0.59440    0.52998    1.000
    H4       H        0.29370    0.62710    0.50080    1.000
    C8       C        0.42040    0.55860    0.61724    1.000
    H5       H        0.45150    0.56240    0.66160    1.000
    C9       C        0.42520    0.48530    0.56875    1.000
    H6       H        0.45940    0.42860    0.57260    1.000
    C10      C        0.27870    0.59570    0.24608    1.000
    H7       H        0.25860    0.63360    0.28580    1.000
    C11      C        0.31000    0.54750    0.13752    1.000
    H8       H        0.31620    0.54640    0.08600    1.000
    C12      C        0.33340    0.47610    0.18321    1.000
    H9       H        0.35840    0.41580    0.17010    1.000
    N5       N        0.87085    0.99150    0.98737    1.000
    N6       N        0.86379    0.87339    0.90749    1.000
    N7       N        0.81423    0.99284    0.24724    1.000
    N8       N        0.77542    0.87746    0.32277    1.000
    C13      C        0.84918    0.19630    0.11756    1.000
    C14      C        0.86118    0.14410    0.05277    1.000
    H10      H        0.87170    0.17740    0.00830    1.000
    C15      C        0.85760    0.04390    0.05381    1.000
    C16      C        0.84310    0.99200    0.11732    1.000
    H11      H        0.84210    0.92310    0.11720    1.000
    C17      C        0.83010    0.04420    0.18100    1.000
    C18      C        0.83317    0.14420    0.18179    1.000
    H12      H        0.82430    0.17810    0.22630    1.000
    C19      C        0.83470    0.90560    0.97002    1.000
    H13      H        0.79370    0.87290    0.99920    1.000
    C20      C        0.92040    0.94140    0.88276    1.000
    H14      H        0.95150    0.93760    0.83840    1.000
    C21      C        0.92520    0.01470    0.93125    1.000
    H15      H        0.95940    0.07140    0.92740    1.000
    C22      C        0.77870    0.90430    0.25392    1.000
    H16      H        0.75860    0.86640    0.21420    1.000
    C23      C        0.81000    0.95250    0.36248    1.000
    H17      H        0.81620    0.95360    0.41400    1.000
    C24      C        0.83340    0.02390    0.31679    1.000
    H18      H        0.85840    0.08420    0.32990    1.000
    N9       N        0.87085    0.50850    0.98737    1.000
    N10      N        0.86379    0.62661    0.90749    1.000
    N11      N        0.81423    0.50716    0.24724    1.000
    N12      N        0.77542    0.62254    0.32277    1.000
    C25      C        0.84918    0.30370    0.11756    1.000
    C26      C        0.86118    0.35590    0.05277    1.000
    H19      H        0.87170    0.32260    0.00830    1.000
    C27      C        0.85760    0.45610    0.05381    1.000
    C28      C        0.84310    0.50800    0.11732    1.000
    H20      H        0.84210    0.57690    0.11720    1.000
    C29      C        0.83010    0.45580    0.18100    1.000
    C30      C        0.83317    0.35580    0.18179    1.000
    H21      H        0.82430    0.32190    0.22630    1.000
    C31      C        0.83470    0.59440    0.97002    1.000
    H22      H        0.79370    0.62710    0.99920    1.000
    C32      C        0.92040    0.55860    0.88276    1.000
    H23      H        0.95150    0.56240    0.83840    1.000
    C33      C        0.92520    0.48530    0.93125    1.000
    H24      H        0.95940    0.42860    0.92740    1.000
    C34      C        0.77870    0.59570    0.25392    1.000
    H25      H        0.75860    0.63360    0.21420    1.000
    C35      C        0.81000    0.54750    0.36248    1.000
    H26      H        0.81620    0.54640    0.41400    1.000
    C36      C        0.83340    0.47610    0.31679    1.000
    H27      H        0.85840    0.41580    0.32990    1.000
    N13      N        0.37085    0.99150    0.51263    1.000
    N14      N        0.36379    0.87339    0.59251    1.000
    N15      N        0.31423    0.99284    0.25276    1.000
    N16      N        0.27542    0.87746    0.17723    1.000
    C37      C        0.34918    0.19630    0.38244    1.000
    C38      C        0.36118    0.14410    0.44723    1.000
    H28      H        0.37170    0.17740    0.49170    1.000
    C39      C        0.35760    0.04390    0.44619    1.000
    C40      C        0.34310    0.99200    0.38268    1.000
    H29      H        0.34210    0.92310    0.38280    1.000
    C41      C        0.33010    0.04420    0.31900    1.000
    C42      C        0.33317    0.14420    0.31821    1.000
    H30      H        0.32430    0.17810    0.27370    1.000
    C43      C        0.33470    0.90560    0.52998    1.000
    H31      H        0.29370    0.87290    0.50080    1.000
    C44      C        0.42040    0.94140    0.61724    1.000
    H32      H        0.45150    0.93760    0.66160    1.000
    C45      C        0.42520    0.01470    0.56875    1.000
    H33      H        0.45940    0.07140    0.57260    1.000
    C46      C        0.27870    0.90430    0.24608    1.000
    H34      H        0.25860    0.86640    0.28580    1.000
    C47      C        0.31000    0.95250    0.13752    1.000
    H35      H        0.31620    0.95360    0.08600    1.000
    C48      C        0.33340    0.02390    0.18321    1.000
    H36      H        0.35840    0.08420    0.17010    1.000
    Zn1      Zn       0.32777    0.75000    0.64298    1.000
    Zn2      Zn       0.24157    0.75000    0.13385    1.000
    O1       O        0.20060    0.75000    0.63975    1.000
    O2       O        0.19680    0.75000    0.51880    1.000
    O3       O        0.79220    0.75000    0.46561    1.000
    O4       O        0.91100    0.75000    0.40004    1.000
    O5       O        0.82540    0.75000    0.74601    1.000
    O6       O        0.95480    0.75000    0.78871    1.000
    C49      C        0.06520    0.75000    0.58440    1.000
    C50      C        0.01450    0.75000    0.52250    1.000
    H37      H        0.04030    0.75000    0.47560    1.000
    C51      C        0.92640    0.75000    0.52860    1.000
    C52      C        0.88850    0.75000    0.59780    1.000
    H38      H        0.82810    0.75000    0.60240    1.000
    C53      C        0.93950    0.75000    0.65960    1.000
    C54      C        0.02680    0.75000    0.65230    1.000
    H39      H        0.06140    0.75000    0.69480    1.000
    C55      C        0.16150    0.75000    0.57900    1.000
    C56      C        0.87410    0.75000    0.45900    1.000
    C57      C        0.90470    0.75000    0.73600    1.000
    Zn3      Zn       0.82777    0.75000    0.85702    1.000
    Zn4      Zn       0.74157    0.75000    0.36615    1.000
    O7       O        0.70060    0.75000    0.86025    1.000
    O8       O        0.69680    0.75000    0.98120    1.000
    O9       O        0.29220    0.75000    0.03439    1.000
    O10      O        0.41100    0.75000    0.09996    1.000
    O11      O        0.32540    0.75000    0.75399    1.000
    O12      O        0.45480    0.75000    0.71129    1.000
    C58      C        0.56520    0.75000    0.91560    1.000
    C59      C        0.51450    0.75000    0.97750    1.000
    H40      H        0.54030    0.75000    0.02440    1.000
    C60      C        0.42640    0.75000    0.97140    1.000
    C61      C        0.38850    0.75000    0.90220    1.000
    H41      H        0.32810    0.75000    0.89760    1.000
    C62      C        0.43950    0.75000    0.84040    1.000
    C63      C        0.52680    0.75000    0.84770    1.000
    H42      H        0.56140    0.75000    0.80520    1.000
    C64      C        0.66150    0.75000    0.92100    1.000
    C65      C        0.37410    0.75000    0.04100    1.000
    C66      C        0.40470    0.75000    0.76400    1.000
    N17      N        0.12915    0.49150    0.01263    1.000
    N18      N        0.13621    0.37339    0.09251    1.000
    N19      N        0.18577    0.49284    0.75276    1.000
    N20      N        0.22458    0.37746    0.67723    1.000
    C67      C        0.15082    0.69630    0.88244    1.000
    C68      C        0.13882    0.64410    0.94723    1.000
    H43      H        0.12830    0.67740    0.99170    1.000
    C69      C        0.14240    0.54390    0.94619    1.000
    C70      C        0.15690    0.49200    0.88268    1.000
    H44      H        0.15790    0.42310    0.88280    1.000
    C71      C        0.16990    0.54420    0.81900    1.000
    C72      C        0.16683    0.64420    0.81821    1.000
    H45      H        0.17570    0.67810    0.77370    1.000
    C73      C        0.16530    0.40560    0.02998    1.000
    H46      H        0.20630    0.37290    0.00080    1.000
    C74      C        0.07960    0.44140    0.11724    1.000
    H47      H        0.04850    0.43760    0.16160    1.000
    C75      C        0.07480    0.51470    0.06875    1.000
    H48      H        0.04060    0.57140    0.07260    1.000
    C76      C        0.22130    0.40430    0.74608    1.000
    H49      H        0.24140    0.36640    0.78580    1.000
    C77      C        0.19000    0.45250    0.63752    1.000
    H50      H        0.18380    0.45360    0.58600    1.000
    C78      C        0.16660    0.52390    0.68321    1.000
    H51      H        0.14160    0.58420    0.67010    1.000
    N21      N        0.62915    0.00850    0.48737    1.000
    N22      N        0.63621    0.12661    0.40749    1.000
    N23      N        0.68577    0.00716    0.74724    1.000
    N24      N        0.72458    0.12254    0.82277    1.000
    C79      C        0.65082    0.80370    0.61756    1.000
    C80      C        0.63882    0.85590    0.55277    1.000
    H52      H        0.62830    0.82260    0.50830    1.000
    C81      C        0.64240    0.95610    0.55381    1.000
    C82      C        0.65690    0.00800    0.61732    1.000
    H53      H        0.65790    0.07690    0.61720    1.000
    C83      C        0.66990    0.95580    0.68100    1.000
    C84      C        0.66683    0.85580    0.68179    1.000
    H54      H        0.67570    0.82190    0.72630    1.000
    C85      C        0.66530    0.09440    0.47002    1.000
    H55      H        0.70630    0.12710    0.49920    1.000
    C86      C        0.57960    0.05860    0.38276    1.000
    H56      H        0.54850    0.06240    0.33840    1.000
    C87      C        0.57480    0.98530    0.43125    1.000
    H57      H        0.54060    0.92860    0.42740    1.000
    C88      C        0.72130    0.09570    0.75392    1.000
    H58      H        0.74140    0.13360    0.71420    1.000
    C89      C        0.69000    0.04750    0.86248    1.000
    H59      H        0.68380    0.04640    0.91400    1.000
    C90      C        0.66660    0.97610    0.81679    1.000
    H60      H        0.64160    0.91580    0.82990    1.000
    N25      N        0.62915    0.49150    0.48737    1.000
    N26      N        0.63621    0.37339    0.40749    1.000
    N27      N        0.68577    0.49284    0.74724    1.000
    N28      N        0.72458    0.37746    0.82277    1.000
    C91      C        0.65082    0.69630    0.61756    1.000
    C92      C        0.63882    0.64410    0.55277    1.000
    H61      H        0.62830    0.67740    0.50830    1.000
    C93      C        0.64240    0.54390    0.55381    1.000
    C94      C        0.65690    0.49200    0.61732    1.000
    H62      H        0.65790    0.42310    0.61720    1.000
    C95      C        0.66990    0.54420    0.68100    1.000
    C96      C        0.66683    0.64420    0.68179    1.000
    H63      H        0.67570    0.67810    0.72630    1.000
    C97      C        0.66530    0.40560    0.47002    1.000
    H64      H        0.70630    0.37290    0.49920    1.000
    C98      C        0.57960    0.44140    0.38276    1.000
    H65      H        0.54850    0.43760    0.33840    1.000
    C99      C        0.57480    0.51470    0.43125    1.000
    H66      H        0.54060    0.57140    0.42740    1.000
    C100     C        0.72130    0.40430    0.75392    1.000
    H67      H        0.74140    0.36640    0.71420    1.000
    C101     C        0.69000    0.45250    0.86248    1.000
    H68      H        0.68380    0.45360    0.91400    1.000
    C102     C        0.66660    0.52390    0.81679    1.000
    H69      H        0.64160    0.58420    0.82990    1.000
    N29      N        0.12915    0.00850    0.01263    1.000
    N30      N        0.13621    0.12661    0.09251    1.000
    N31      N        0.18577    0.00716    0.75276    1.000
    N32      N        0.22458    0.12254    0.67723    1.000
    C103     C        0.15082    0.80370    0.88244    1.000
    C104     C        0.13882    0.85590    0.94723    1.000
    H70      H        0.12830    0.82260    0.99170    1.000
    C105     C        0.14240    0.95610    0.94619    1.000
    C106     C        0.15690    0.00800    0.88268    1.000
    H71      H        0.15790    0.07690    0.88280    1.000
    C107     C        0.16990    0.95580    0.81900    1.000
    C108     C        0.16683    0.85580    0.81821    1.000
    H72      H        0.17570    0.82190    0.77370    1.000
    C109     C        0.16530    0.09440    0.02998    1.000
    H73      H        0.20630    0.12710    0.00080    1.000
    C110     C        0.07960    0.05860    0.11724    1.000
    H74      H        0.04850    0.06240    0.16160    1.000
    C111     C        0.07480    0.98530    0.06875    1.000
    H75      H        0.04060    0.92860    0.07260    1.000
    C112     C        0.22130    0.09570    0.74608    1.000
    H76      H        0.24140    0.13360    0.78580    1.000
    C113     C        0.19000    0.04750    0.63752    1.000
    H77      H        0.18380    0.04640    0.58600    1.000
    C114     C        0.16660    0.97610    0.68321    1.000
    H78      H        0.14160    0.91580    0.67010    1.000
    Zn5      Zn       0.17223    0.25000    0.14298    1.000
    Zn6      Zn       0.25843    0.25000    0.63385    1.000
    O13      O        0.29940    0.25000    0.13975    1.000
    O14      O        0.30320    0.25000    0.01880    1.000
    O15      O        0.70780    0.25000    0.96561    1.000
    O16      O        0.58900    0.25000    0.90004    1.000
    O17      O        0.67460    0.25000    0.24601    1.000
    O18      O        0.54520    0.25000    0.28871    1.000
    C115     C        0.43480    0.25000    0.08440    1.000
    C116     C        0.48550    0.25000    0.02250    1.000
    H79      H        0.45970    0.25000    0.97560    1.000
    C117     C        0.57360    0.25000    0.02860    1.000
    C118     C        0.61150    0.25000    0.09780    1.000
    H80      H        0.67190    0.25000    0.10240    1.000
    C119     C        0.56050    0.25000    0.15960    1.000
    C120     C        0.47320    0.25000    0.15230    1.000
    H81      H        0.43860    0.25000    0.19480    1.000
    C121     C        0.33850    0.25000    0.07900    1.000
    C122     C        0.62590    0.25000    0.95900    1.000
    C123     C        0.59530    0.25000    0.23600    1.000
    Zn7      Zn       0.67223    0.25000    0.35702    1.000
    Zn8      Zn       0.75843    0.25000    0.86615    1.000
    O19      O        0.79940    0.25000    0.36025    1.000
    O20      O        0.80320    0.25000    0.48120    1.000
    O21      O        0.20780    0.25000    0.53439    1.000
    O22      O        0.08900    0.25000    0.59996    1.000
    O23      O        0.17460    0.25000    0.25399    1.000
    O24      O        0.04520    0.25000    0.21129    1.000
    C124     C        0.93480    0.25000    0.41560    1.000
    C125     C        0.98550    0.25000    0.47750    1.000
    H82      H        0.95970    0.25000    0.52440    1.000
    C126     C        0.07360    0.25000    0.47140    1.000
    C127     C        0.11150    0.25000    0.40220    1.000
    H83      H        0.17190    0.25000    0.39760    1.000
    C128     C        0.06050    0.25000    0.34040    1.000
    C129     C        0.97320    0.25000    0.34770    1.000
    H84      H        0.93860    0.25000    0.30520    1.000
    C130     C        0.83850    0.25000    0.42100    1.000
    C131     C        0.12590    0.25000    0.54100    1.000
    C132     C        0.09530    0.25000    0.26400    1.000
