# CIF file generated by openbabel 3.1.0, see https://openbabel.org
data_I
_chemical_name_common 'image0'
_cell_length_a 9.0154
_cell_length_b 25.441
_cell_length_c 11.39
_cell_angle_alpha 90
_cell_angle_beta 104.41
_cell_angle_gamma 90
_space_group_name_H-M_alt 'P 1'
_space_group_name_Hall 'P 1'
loop_
    _symmetry_equiv_pos_as_xyz
    x,y,z
loop_
    _atom_site_label
    _atom_site_type_symbol
    _atom_site_fract_x
    _atom_site_fract_y
    _atom_site_fract_z
    _atom_site_occupancy
    O1       O        0.33950    0.15355    0.43740    1.000
    O2       O        0.29310    0.06853    0.45270    1.000
    O3       O        0.24160    0.26738    0.38440    1.000
    O4       O        0.01200    0.29082    0.27838    1.000
    N1       N        0.39600    0.04233    0.25670    1.000
    N2       N        0.10080    0.31043    0.07470    1.000
    C1       C        0.34150    0.10601    0.40550    1.000
    C2       C        0.41640    0.09654    0.30090    1.000
    H1       H        0.37120    0.12080    0.23360    1.000
    H2       H        0.52720    0.10440    0.32840    1.000
    C3       C        0.29760    0.02619    0.15020    1.000
    H3       H        0.24020    0.04830    0.08810    1.000
    C4       C        0.15020    0.28291    0.28750    1.000
    C5       C        0.21680    0.29099    0.17840    1.000
    H4       H        0.30230    0.31650    0.19950    1.000
    H5       H        0.25810    0.25720    0.15700    1.000
    C6       C        0.06230    0.36199    0.04700    1.000
    H6       H        0.11410    0.39200    0.08680    1.000
    O5       O        0.83950    0.65355    0.43740    1.000
    O6       O        0.79310    0.56853    0.45270    1.000
    O7       O        0.74160    0.76738    0.38440    1.000
    O8       O        0.51200    0.79082    0.27838    1.000
    N3       N        0.89600    0.54233    0.25670    1.000
    N4       N        0.60080    0.81043    0.07470    1.000
    C7       C        0.84150    0.60601    0.40550    1.000
    C8       C        0.91640    0.59654    0.30090    1.000
    H7       H        0.87120    0.62080    0.23360    1.000
    H8       H        0.02720    0.60440    0.32840    1.000
    C9       C        0.79760    0.52619    0.15020    1.000
    H9       H        0.74020    0.54830    0.08810    1.000
    C10      C        0.65020    0.78291    0.28750    1.000
    C11      C        0.71680    0.79099    0.17840    1.000
    H10      H        0.80230    0.81650    0.19950    1.000
    H11      H        0.75810    0.75720    0.15700    1.000
    C12      C        0.56230    0.86199    0.04700    1.000
    H12      H        0.61410    0.89200    0.08680    1.000
    O9       O        0.66050    0.15355    0.56260    1.000
    O10      O        0.70690    0.06853    0.54730    1.000
    O11      O        0.75840    0.26738    0.61560    1.000
    O12      O        0.98800    0.29082    0.72162    1.000
    N5       N        0.60400    0.04233    0.74330    1.000
    N6       N        0.89920    0.31043    0.92530    1.000
    C13      C        0.65850    0.10601    0.59450    1.000
    C14      C        0.58360    0.09654    0.69910    1.000
    H13      H        0.62880    0.12080    0.76640    1.000
    H14      H        0.47280    0.10440    0.67160    1.000
    C15      C        0.70240    0.02619    0.84980    1.000
    H15      H        0.75980    0.04830    0.91190    1.000
    C16      C        0.84980    0.28291    0.71250    1.000
    C17      C        0.78320    0.29099    0.82160    1.000
    H16      H        0.69770    0.31650    0.80050    1.000
    H17      H        0.74190    0.25720    0.84300    1.000
    C18      C        0.93770    0.36199    0.95300    1.000
    H18      H        0.88590    0.39200    0.91320    1.000
    O13      O        0.16050    0.65355    0.56260    1.000
    O14      O        0.20690    0.56853    0.54730    1.000
    O15      O        0.25840    0.76738    0.61560    1.000
    O16      O        0.48800    0.79082    0.72162    1.000
    N7       N        0.10400    0.54233    0.74330    1.000
    N8       N        0.39920    0.81043    0.92530    1.000
    C19      C        0.15850    0.60601    0.59450    1.000
    C20      C        0.08360    0.59654    0.69910    1.000
    H19      H        0.12880    0.62080    0.76640    1.000
    H20      H        0.97280    0.60440    0.67160    1.000
    C21      C        0.20240    0.52619    0.84980    1.000
    H21      H        0.25980    0.54830    0.91190    1.000
    C22      C        0.34980    0.78291    0.71250    1.000
    C23      C        0.28320    0.79099    0.82160    1.000
    H22      H        0.19770    0.81650    0.80050    1.000
    H23      H        0.24190    0.75720    0.84300    1.000
    C24      C        0.43770    0.86199    0.95300    1.000
    H24      H        0.38590    0.89200    0.91320    1.000
    O17      O        0.66050    0.84645    0.56260    1.000
    O18      O        0.70690    0.93147    0.54730    1.000
    O19      O        0.75840    0.73262    0.61560    1.000
    O20      O        0.98800    0.70918    0.72162    1.000
    N9       N        0.60400    0.95767    0.74330    1.000
    N10      N        0.89920    0.68957    0.92530    1.000
    C25      C        0.65850    0.89399    0.59450    1.000
    C26      C        0.58360    0.90346    0.69910    1.000
    H25      H        0.62880    0.87920    0.76640    1.000
    H26      H        0.47280    0.89560    0.67160    1.000
    C27      C        0.70240    0.97381    0.84980    1.000
    H27      H        0.75980    0.95170    0.91190    1.000
    C28      C        0.84980    0.71709    0.71250    1.000
    C29      C        0.78320    0.70901    0.82160    1.000
    H28      H        0.69770    0.68350    0.80050    1.000
    H29      H        0.74190    0.74280    0.84300    1.000
    C30      C        0.93770    0.63801    0.95300    1.000
    H30      H        0.88590    0.60800    0.91320    1.000
    O21      O        0.16050    0.34645    0.56260    1.000
    O22      O        0.20690    0.43147    0.54730    1.000
    O23      O        0.25840    0.23262    0.61560    1.000
    O24      O        0.48800    0.20918    0.72162    1.000
    N11      N        0.10400    0.45767    0.74330    1.000
    N12      N        0.39920    0.18957    0.92530    1.000
    C31      C        0.15850    0.39399    0.59450    1.000
    C32      C        0.08360    0.40346    0.69910    1.000
    H31      H        0.12880    0.37920    0.76640    1.000
    H32      H        0.97280    0.39560    0.67160    1.000
    C33      C        0.20240    0.47381    0.84980    1.000
    H33      H        0.25980    0.45170    0.91190    1.000
    C34      C        0.34980    0.21709    0.71250    1.000
    C35      C        0.28320    0.20901    0.82160    1.000
    H34      H        0.19770    0.18350    0.80050    1.000
    H35      H        0.24190    0.24280    0.84300    1.000
    C36      C        0.43770    0.13801    0.95300    1.000
    H36      H        0.38590    0.10800    0.91320    1.000
    O25      O        0.33950    0.84645    0.43740    1.000
    O26      O        0.29310    0.93147    0.45270    1.000
    O27      O        0.24160    0.73262    0.38440    1.000
    O28      O        0.01200    0.70918    0.27838    1.000
    N13      N        0.39600    0.95767    0.25670    1.000
    N14      N        0.10080    0.68957    0.07470    1.000
    C37      C        0.34150    0.89399    0.40550    1.000
    C38      C        0.41640    0.90346    0.30090    1.000
    H37      H        0.37120    0.87920    0.23360    1.000
    H38      H        0.52720    0.89560    0.32840    1.000
    C39      C        0.29760    0.97381    0.15020    1.000
    H39      H        0.24020    0.95170    0.08810    1.000
    C40      C        0.15020    0.71709    0.28750    1.000
    C41      C        0.21680    0.70901    0.17840    1.000
    H40      H        0.30230    0.68350    0.19950    1.000
    H41      H        0.25810    0.74280    0.15700    1.000
    C42      C        0.06230    0.63801    0.04700    1.000
    H42      H        0.11410    0.60800    0.08680    1.000
    O29      O        0.83950    0.34645    0.43740    1.000
    O30      O        0.79310    0.43147    0.45270    1.000
    O31      O        0.74160    0.23262    0.38440    1.000
    O32      O        0.51200    0.20918    0.27838    1.000
    N15      N        0.89600    0.45767    0.25670    1.000
    N16      N        0.60080    0.18957    0.07470    1.000
    C43      C        0.84150    0.39399    0.40550    1.000
    C44      C        0.91640    0.40346    0.30090    1.000
    H43      H        0.87120    0.37920    0.23360    1.000
    H44      H        0.02720    0.39560    0.32840    1.000
    C45      C        0.79760    0.47381    0.15020    1.000
    H45      H        0.74020    0.45170    0.08810    1.000
    C46      C        0.65020    0.21709    0.28750    1.000
    C47      C        0.71680    0.20901    0.17840    1.000
    H46      H        0.80230    0.18350    0.19950    1.000
    H47      H        0.75810    0.24280    0.15700    1.000
    C48      C        0.56230    0.13801    0.04700    1.000
    H48      H        0.61410    0.10800    0.08680    1.000
    La1      La       0.50000    0.23472    0.50000    1.000
    La2      La       0.00000    0.73472    0.50000    1.000
    La3      La       0.50000    0.76528    0.50000    1.000
    La4      La       0.00000    0.26528    0.50000    1.000
    C49      C        0.45510    0.00000    0.31860    1.000
    H49      H        0.52790    0.00000    0.39490    1.000
    C50      C        0.95510    0.50000    0.31860    1.000
    H50      H        0.02790    0.50000    0.39490    1.000
    C51      C        0.54490    0.00000    0.68140    1.000
    H51      H        0.47210    0.00000    0.60510    1.000
    C52      C        0.04490    0.50000    0.68140    1.000
    H52      H        0.97210    0.50000    0.60510    1.000
    C53      C        0.00000    0.28000    0.00000    1.000
    H53      H        0.00000    0.24270    0.00000    1.000
    C54      C        0.50000    0.78000    0.00000    1.000
    H54      H        0.50000    0.74270    0.00000    1.000
    C55      C        0.00000    0.72000    0.00000    1.000
    H55      H        0.00000    0.75730    0.00000    1.000
    C56      C        0.50000    0.22000    0.00000    1.000
    H56      H        0.50000    0.25730    0.00000    1.000
