# CIF file generated by openbabel 3.1.0, see https://openbabel.org
data_I
_chemical_name_common 'LEPLEZ_clean'
_cell_length_a 10.5671
_cell_length_b 10.5671
_cell_length_c 10.9194
_cell_angle_alpha 78.7708
_cell_angle_beta 62.4963
_cell_angle_gamma 108.758
_space_group_name_H-M_alt 'P 1'
_space_group_name_Hall 'P 1'
loop_
    _symmetry_equiv_pos_as_xyz
    x,y,z
loop_
    _atom_site_label
    _atom_site_type_symbol
    _atom_site_fract_x
    _atom_site_fract_y
    _atom_site_fract_z
    _atom_site_occupancy
    Sm1      Sm       0.44853    0.63517    0.62016    1.000
    Sm2      Sm       0.75533    0.06869    0.87984    1.000
    Sm3      Sm       0.55147    0.36483    0.37984    1.000
    Sm4      Sm       0.24467    0.93131    0.12016    1.000
    H1       H        0.89700    0.51370    0.84910    1.000
    H2       H        0.04150    0.61670    0.68160    1.000
    H3       H        0.73330    0.39110    0.71700    1.000
    H4       H        0.86280    0.74610    0.65090    1.000
    H5       H        0.79830    0.72310    0.81840    1.000
    H6       H        0.60810    0.45030    0.78300    1.000
    H7       H        0.10300    0.48630    0.15090    1.000
    H8       H        0.95850    0.38330    0.31840    1.000
    H9       H        0.26670    0.60890    0.28300    1.000
    H10      H        0.13720    0.25390    0.34910    1.000
    H11      H        0.20170    0.27690    0.18160    1.000
    H12      H        0.39190    0.54970    0.21700    1.000
    C1       C        0.09640    0.64900    0.83160    1.000
    C2       C        0.01300    0.55400    0.77780    1.000
    C3       C        0.04710    0.42790    0.75760    1.000
    C4       C        0.59880    0.37460    0.62520    1.000
    C5       C        0.98060    0.92800    0.66840    1.000
    C6       C        0.83180    0.79080    0.72220    1.000
    C7       C        0.68550    0.80470    0.74240    1.000
    C8       C        0.49980    0.22400    0.87480    1.000
    C9       C        0.90360    0.35100    0.16840    1.000
    C10      C        0.98700    0.44600    0.22220    1.000
    C11      C        0.95290    0.57210    0.24240    1.000
    C12      C        0.40120    0.62540    0.37480    1.000
    C13      C        0.01940    0.07200    0.33160    1.000
    C14      C        0.16820    0.20920    0.27780    1.000
    C15      C        0.31450    0.19530    0.25760    1.000
    C16      C        0.50020    0.77600    0.12520    1.000
    C17      C        0.62490    0.37490    0.75000    1.000
    C18      C        0.37510    0.62510    0.25000    1.000
    O1       O        0.24610    0.69110    0.77440    1.000
    O2       O        0.01520    0.68750    0.92790    1.000
    O3       O        0.18650    0.44260    0.70850    1.000
    O4       O        0.93220    0.31490    0.78610    1.000
    O5       O        0.63280    0.29380    0.55840    1.000
    O6       O        0.53950    0.45060    0.59190    1.000
    O7       O        0.96550    0.02050    0.72560    1.000
    O8       O        0.11540    0.94310    0.57210    1.000
    O9       O        0.65110    0.89500    0.79150    1.000
    O10      O        0.60100    0.71830    0.71390    1.000
    O11      O        0.35220    0.19120    0.94160    1.000
    O12      O        0.54250    0.13140    0.90810    1.000
    O13      O        0.75390    0.30890    0.22560    1.000
    O14      O        0.98480    0.31250    0.07210    1.000
    O15      O        0.81350    0.55740    0.29150    1.000
    O16      O        0.06780    0.68510    0.21390    1.000
    O17      O        0.36720    0.70620    0.44160    1.000
    O18      O        0.46050    0.54940    0.40810    1.000
    O19      O        0.03450    0.97950    0.27440    1.000
    O20      O        0.88460    0.05690    0.42790    1.000
    O21      O        0.34890    0.10500    0.20850    1.000
    O22      O        0.39900    0.28170    0.28610    1.000
    O23      O        0.64780    0.80880    0.05840    1.000
    O24      O        0.45750    0.86860    0.09190    1.000
