# CIF file generated by openbabel 3.1.0, see https://openbabel.org
data_I
_chemical_name_common 'AHUTIH_clean'
_cell_length_a 6.1071
_cell_length_b 7.6962
_cell_length_c 22.702
_cell_angle_alpha 90
_cell_angle_beta 91.645
_cell_angle_gamma 90
_space_group_name_H-M_alt 'P 1'
_space_group_name_Hall 'P 1'
loop_
    _symmetry_equiv_pos_as_xyz
    x,y,z
loop_
    _atom_site_label
    _atom_site_type_symbol
    _atom_site_fract_x
    _atom_site_fract_y
    _atom_site_fract_z
    _atom_site_occupancy
    La1      La       0.54514    0.99824    0.14605    1.000
    La2      La       0.45486    0.49824    0.35395    1.000
    La3      La       0.45486    0.00176    0.85395    1.000
    La4      La       0.54514    0.50176    0.64605    1.000
    H1       H        0.95960    0.02070    0.28270    1.000
    H2       H        0.88620    0.93270    0.37440    1.000
    H3       H        0.04040    0.52070    0.21730    1.000
    H4       H        0.11380    0.43270    0.12560    1.000
    H5       H        0.04040    0.97930    0.71730    1.000
    H6       H        0.11380    0.06730    0.62560    1.000
    H7       H        0.95960    0.47930    0.78270    1.000
    H8       H        0.88620    0.56730    0.87440    1.000
    C1       C        0.63990    0.10310    0.28860    1.000
    C2       C        0.81750    0.96300    0.28630    1.000
    C3       C        0.82190    0.85990    0.34300    1.000
    C4       C        0.95330    0.69420    0.33970    1.000
    C5       C        0.58380    0.07510    0.99920    1.000
    C6       C        0.36010    0.60310    0.21140    1.000
    C7       C        0.18250    0.46300    0.21370    1.000
    C8       C        0.17810    0.35990    0.15700    1.000
    C9       C        0.04670    0.19420    0.16030    1.000
    C10      C        0.41620    0.57510    0.50080    1.000
    C11      C        0.36010    0.89690    0.71140    1.000
    C12      C        0.18250    0.03700    0.71370    1.000
    C13      C        0.17810    0.14010    0.65700    1.000
    C14      C        0.04670    0.30580    0.66030    1.000
    C15      C        0.41620    0.92490    0.00080    1.000
    C16      C        0.63990    0.39690    0.78860    1.000
    C17      C        0.81750    0.53700    0.78630    1.000
    C18      C        0.82190    0.64010    0.84300    1.000
    C19      C        0.95330    0.80580    0.83970    1.000
    C20      C        0.58380    0.42490    0.49920    1.000
    O1       O        0.48940    0.10320    0.24920    1.000
    O2       O        0.65000    0.21280    0.32990    1.000
    O3       O        0.77980    0.85650    0.23470    1.000
    O4       O        0.60020    0.81460    0.35860    1.000
    O5       O        0.85640    0.55240    0.34540    1.000
    O6       O        0.15340    0.70950    0.33340    1.000
    O7       O        0.62360    0.13230    0.94800    1.000
    O8       O        0.65940    0.13060    0.04640    1.000
    O9       O        0.51060    0.60320    0.25080    1.000
    O10      O        0.35000    0.71280    0.17010    1.000
    O11      O        0.22020    0.35650    0.26530    1.000
    O12      O        0.39980    0.31460    0.14140    1.000
    O13      O        0.14360    0.05240    0.15460    1.000
    O14      O        0.84660    0.20950    0.16660    1.000
    O15      O        0.37640    0.63230    0.55200    1.000
    O16      O        0.34060    0.63060    0.45360    1.000
    O17      O        0.51060    0.89680    0.75080    1.000
    O18      O        0.35000    0.78720    0.67010    1.000
    O19      O        0.22020    0.14350    0.76530    1.000
    O20      O        0.39980    0.18540    0.64140    1.000
    O21      O        0.14360    0.44760    0.65460    1.000
    O22      O        0.84660    0.29050    0.66660    1.000
    O23      O        0.37640    0.86770    0.05200    1.000
    O24      O        0.34060    0.86940    0.95360    1.000
    O25      O        0.48940    0.39680    0.74920    1.000
    O26      O        0.65000    0.28720    0.82990    1.000
    O27      O        0.77980    0.64350    0.73470    1.000
    O28      O        0.60020    0.68540    0.85860    1.000
    O29      O        0.85640    0.94760    0.84540    1.000
    O30      O        0.15340    0.79050    0.83340    1.000
    O31      O        0.62360    0.36770    0.44800    1.000
    O32      O        0.65940    0.36940    0.54640    1.000
