# CIF file generated by openbabel 3.1.0, see https://openbabel.org
data_I
_chemical_name_common 'image0'
_cell_length_a 27.841
_cell_length_b 7.5266
_cell_length_c 17.413
_cell_angle_alpha 90
_cell_angle_beta 90
_cell_angle_gamma 90
_space_group_name_H-M_alt 'P 1'
_space_group_name_Hall 'P 1'
loop_
    _symmetry_equiv_pos_as_xyz
    x,y,z
loop_
    _atom_site_label
    _atom_site_type_symbol
    _atom_site_fract_x
    _atom_site_fract_y
    _atom_site_fract_z
    _atom_site_occupancy
    Zn1      Zn       0.09747    0.30632    0.23386    1.000
    O1       O        0.56407    0.01080    0.22294    1.000
    O2       O        0.57634    0.20710    0.87337    1.000
    O3       O        0.51028    0.36360    0.85057    1.000
    O4       O        0.61345    0.96710    0.12550    1.000
    C1       C        0.35514    0.32730    0.19260    1.000
    H1       H        0.34830    0.37260    0.24110    1.000
    C2       C        0.20439    0.32130    0.26320    1.000
    H2       H        0.19590    0.34490    0.31390    1.000
    C3       C        0.25278    0.31210    0.24440    1.000
    H3       H        0.27600    0.32830    0.28220    1.000
    C4       C        0.26655    0.27850    0.16920    1.000
    C5       C        0.31773    0.26760    0.14510    1.000
    C6       C        0.33032    0.20150    0.07340    1.000
    H4       H        0.30640    0.16190    0.04020    1.000
    C7       C        0.37750    0.19380    0.05070    1.000
    H5       H        0.38520    0.14870    0.00260    1.000
    C8       C        0.40207    0.31870    0.16730    1.000
    H6       H        0.42660    0.36000    0.19880    1.000
    C9       C        0.46285    0.23350    0.07460    1.000
    C10      C        0.47528    0.27530    0.00010    1.000
    H7       H        0.45270    0.32290    0.96650    1.000
    C11      C        0.49534    0.16180    0.12630    1.000
    H8       H        0.48600    0.13450    0.17620    1.000
    C12      C        0.54223    0.13160    0.10200    1.000
    C13      C        0.55543    0.17330    0.02710    1.000
    H9       H        0.58680    0.15310    0.01090    1.000
    C14      C        0.53638    0.27650    0.89310    1.000
    C15      C        0.52233    0.24460    0.97620    1.000
    C16      C        0.57699    0.03220    0.15290    1.000
    C17      C        0.23003    0.25560    0.11590    1.000
    H10      H        0.23750    0.23450    0.06470    1.000
    C18      C        0.18276    0.26400    0.13850    1.000
    H11      H        0.15900    0.24570    0.10190    1.000
    N1       N        0.16937    0.29750    0.21120    1.000
    N2       N        0.41277    0.25130    0.09782    1.000
    Zn2      Zn       0.59747    0.19368    0.76614    1.000
    O5       O        0.06407    0.48920    0.77706    1.000
    O6       O        0.07634    0.29290    0.12663    1.000
    O7       O        0.01028    0.13640    0.14943    1.000
    O8       O        0.11345    0.53290    0.87450    1.000
    C19      C        0.85514    0.17270    0.80740    1.000
    H12      H        0.84830    0.12740    0.75890    1.000
    C20      C        0.70439    0.17870    0.73680    1.000
    H13      H        0.69590    0.15510    0.68610    1.000
    C21      C        0.75278    0.18790    0.75560    1.000
    H14      H        0.77600    0.17170    0.71780    1.000
    C22      C        0.76655    0.22150    0.83080    1.000
    C23      C        0.81773    0.23240    0.85490    1.000
    C24      C        0.83032    0.29850    0.92660    1.000
    H15      H        0.80640    0.33810    0.95980    1.000
    C25      C        0.87750    0.30620    0.94930    1.000
    H16      H        0.88520    0.35130    0.99740    1.000
    C26      C        0.90207    0.18130    0.83270    1.000
    H17      H        0.92660    0.14000    0.80120    1.000
    C27      C        0.96285    0.26650    0.92540    1.000
    C28      C        0.97528    0.22470    0.99990    1.000
    H18      H        0.95270    0.17710    0.03350    1.000
    C29      C        0.99534    0.33820    0.87370    1.000
    H19      H        0.98600    0.36550    0.82380    1.000
    C30      C        0.04223    0.36840    0.89800    1.000
    C31      C        0.05543    0.32670    0.97290    1.000
    H20      H        0.08680    0.34690    0.98910    1.000
    C32      C        0.03638    0.22350    0.10690    1.000
    C33      C        0.02233    0.25540    0.02380    1.000
    C34      C        0.07699    0.46780    0.84710    1.000
    C35      C        0.73003    0.24440    0.88410    1.000
    H21      H        0.73750    0.26550    0.93530    1.000
    C36      C        0.68276    0.23600    0.86150    1.000
    H22      H        0.65900    0.25430    0.89810    1.000
    N3       N        0.66937    0.20250    0.78880    1.000
    N4       N        0.91277    0.24870    0.90218    1.000
    Zn3      Zn       0.59747    0.80632    0.26614    1.000
    O9       O        0.06407    0.51080    0.27706    1.000
    O10      O        0.07634    0.70710    0.62663    1.000
    O11      O        0.01028    0.86360    0.64943    1.000
    O12      O        0.11345    0.46710    0.37450    1.000
    C37      C        0.85514    0.82730    0.30740    1.000
    H23      H        0.84830    0.87260    0.25890    1.000
    C38      C        0.70439    0.82130    0.23680    1.000
    H24      H        0.69590    0.84490    0.18610    1.000
    C39      C        0.75278    0.81210    0.25560    1.000
    H25      H        0.77600    0.82830    0.21780    1.000
    C40      C        0.76655    0.77850    0.33080    1.000
    C41      C        0.81773    0.76760    0.35490    1.000
    C42      C        0.83032    0.70150    0.42660    1.000
    H26      H        0.80640    0.66190    0.45980    1.000
    C43      C        0.87750    0.69380    0.44930    1.000
    H27      H        0.88520    0.64870    0.49740    1.000
    C44      C        0.90207    0.81870    0.33270    1.000
    H28      H        0.92660    0.86000    0.30120    1.000
    C45      C        0.96285    0.73350    0.42540    1.000
    C46      C        0.97528    0.77530    0.49990    1.000
    H29      H        0.95270    0.82290    0.53350    1.000
    C47      C        0.99534    0.66180    0.37370    1.000
    H30      H        0.98600    0.63450    0.32380    1.000
    C48      C        0.04223    0.63160    0.39800    1.000
    C49      C        0.05543    0.67330    0.47290    1.000
    H31      H        0.08680    0.65310    0.48910    1.000
    C50      C        0.03638    0.77650    0.60690    1.000
    C51      C        0.02233    0.74460    0.52380    1.000
    C52      C        0.07699    0.53220    0.34710    1.000
    C53      C        0.73003    0.75560    0.38410    1.000
    H32      H        0.73750    0.73450    0.43530    1.000
    C54      C        0.68276    0.76400    0.36150    1.000
    H33      H        0.65900    0.74570    0.39810    1.000
    N5       N        0.66937    0.79750    0.28880    1.000
    N6       N        0.91277    0.75130    0.40218    1.000
    Zn4      Zn       0.09747    0.69368    0.73386    1.000
    O13      O        0.56407    0.98920    0.72294    1.000
    O14      O        0.57634    0.79290    0.37337    1.000
    O15      O        0.51028    0.63640    0.35057    1.000
    O16      O        0.61345    0.03290    0.62550    1.000
    C55      C        0.35514    0.67270    0.69260    1.000
    H34      H        0.34830    0.62740    0.74110    1.000
    C56      C        0.20439    0.67870    0.76320    1.000
    H35      H        0.19590    0.65510    0.81390    1.000
    C57      C        0.25278    0.68790    0.74440    1.000
    H36      H        0.27600    0.67170    0.78220    1.000
    C58      C        0.26655    0.72150    0.66920    1.000
    C59      C        0.31773    0.73240    0.64510    1.000
    C60      C        0.33032    0.79850    0.57340    1.000
    H37      H        0.30640    0.83810    0.54020    1.000
    C61      C        0.37750    0.80620    0.55070    1.000
    H38      H        0.38520    0.85130    0.50260    1.000
    C62      C        0.40207    0.68130    0.66730    1.000
    H39      H        0.42660    0.64000    0.69880    1.000
    C63      C        0.46285    0.76650    0.57460    1.000
    C64      C        0.47528    0.72470    0.50010    1.000
    H40      H        0.45270    0.67710    0.46650    1.000
    C65      C        0.49534    0.83820    0.62630    1.000
    H41      H        0.48600    0.86550    0.67620    1.000
    C66      C        0.54223    0.86840    0.60200    1.000
    C67      C        0.55543    0.82670    0.52710    1.000
    H42      H        0.58680    0.84690    0.51090    1.000
    C68      C        0.53638    0.72350    0.39310    1.000
    C69      C        0.52233    0.75540    0.47620    1.000
    C70      C        0.57699    0.96780    0.65290    1.000
    C71      C        0.23003    0.74440    0.61590    1.000
    H43      H        0.23750    0.76550    0.56470    1.000
    C72      C        0.18276    0.73600    0.63850    1.000
    H44      H        0.15900    0.75430    0.60190    1.000
    N7       N        0.16937    0.70250    0.71120    1.000
    N8       N        0.41277    0.74870    0.59782    1.000
    Zn5      Zn       0.40253    0.19368    0.73386    1.000
    O17      O        0.93593    0.48920    0.72294    1.000
    O18      O        0.92366    0.29290    0.37337    1.000
    O19      O        0.98972    0.13640    0.35057    1.000
    O20      O        0.88655    0.53290    0.62550    1.000
    C73      C        0.14486    0.17270    0.69260    1.000
    H45      H        0.15170    0.12740    0.74110    1.000
    C74      C        0.29561    0.17870    0.76320    1.000
    H46      H        0.30410    0.15510    0.81390    1.000
    C75      C        0.24722    0.18790    0.74440    1.000
    H47      H        0.22400    0.17170    0.78220    1.000
    C76      C        0.23345    0.22150    0.66920    1.000
    C77      C        0.18227    0.23240    0.64510    1.000
    C78      C        0.16968    0.29850    0.57340    1.000
    H48      H        0.19360    0.33810    0.54020    1.000
    C79      C        0.12250    0.30620    0.55070    1.000
    H49      H        0.11480    0.35130    0.50260    1.000
    C80      C        0.09793    0.18130    0.66730    1.000
    H50      H        0.07340    0.14000    0.69880    1.000
    C81      C        0.03715    0.26650    0.57460    1.000
    C82      C        0.02472    0.22470    0.50010    1.000
    H51      H        0.04730    0.17710    0.46650    1.000
    C83      C        0.00466    0.33820    0.62630    1.000
    H52      H        0.01400    0.36550    0.67620    1.000
    C84      C        0.95777    0.36840    0.60200    1.000
    C85      C        0.94457    0.32670    0.52710    1.000
    H53      H        0.91320    0.34690    0.51090    1.000
    C86      C        0.96362    0.22350    0.39310    1.000
    C87      C        0.97767    0.25540    0.47620    1.000
    C88      C        0.92301    0.46780    0.65290    1.000
    C89      C        0.26997    0.24440    0.61590    1.000
    H54      H        0.26250    0.26550    0.56470    1.000
    C90      C        0.31724    0.23600    0.63850    1.000
    H55      H        0.34100    0.25430    0.60190    1.000
    N9       N        0.33063    0.20250    0.71120    1.000
    N10      N        0.08723    0.24870    0.59782    1.000
    Zn6      Zn       0.90253    0.30632    0.26614    1.000
    O21      O        0.43593    0.01080    0.27706    1.000
    O22      O        0.42366    0.20710    0.62663    1.000
    O23      O        0.48972    0.36360    0.64943    1.000
    O24      O        0.38655    0.96710    0.37450    1.000
    C91      C        0.64486    0.32730    0.30740    1.000
    H56      H        0.65170    0.37260    0.25890    1.000
    C92      C        0.79561    0.32130    0.23680    1.000
    H57      H        0.80410    0.34490    0.18610    1.000
    C93      C        0.74722    0.31210    0.25560    1.000
    H58      H        0.72400    0.32830    0.21780    1.000
    C94      C        0.73345    0.27850    0.33080    1.000
    C95      C        0.68227    0.26760    0.35490    1.000
    C96      C        0.66968    0.20150    0.42660    1.000
    H59      H        0.69360    0.16190    0.45980    1.000
    C97      C        0.62250    0.19380    0.44930    1.000
    H60      H        0.61480    0.14870    0.49740    1.000
    C98      C        0.59793    0.31870    0.33270    1.000
    H61      H        0.57340    0.36000    0.30120    1.000
    C99      C        0.53715    0.23350    0.42540    1.000
    C100     C        0.52472    0.27530    0.49990    1.000
    H62      H        0.54730    0.32290    0.53350    1.000
    C101     C        0.50466    0.16180    0.37370    1.000
    H63      H        0.51400    0.13450    0.32380    1.000
    C102     C        0.45777    0.13160    0.39800    1.000
    C103     C        0.44457    0.17330    0.47290    1.000
    H64      H        0.41320    0.15310    0.48910    1.000
    C104     C        0.46362    0.27650    0.60690    1.000
    C105     C        0.47767    0.24460    0.52380    1.000
    C106     C        0.42301    0.03220    0.34710    1.000
    C107     C        0.76997    0.25560    0.38410    1.000
    H65      H        0.76250    0.23450    0.43530    1.000
    C108     C        0.81724    0.26400    0.36150    1.000
    H66      H        0.84100    0.24570    0.39810    1.000
    N11      N        0.83063    0.29750    0.28880    1.000
    N12      N        0.58723    0.25130    0.40218    1.000
    Zn7      Zn       0.90253    0.69368    0.76614    1.000
    O25      O        0.43593    0.98920    0.77706    1.000
    O26      O        0.42366    0.79290    0.12663    1.000
    O27      O        0.48972    0.63640    0.14943    1.000
    O28      O        0.38655    0.03290    0.87450    1.000
    C109     C        0.64486    0.67270    0.80740    1.000
    H67      H        0.65170    0.62740    0.75890    1.000
    C110     C        0.79561    0.67870    0.73680    1.000
    H68      H        0.80410    0.65510    0.68610    1.000
    C111     C        0.74722    0.68790    0.75560    1.000
    H69      H        0.72400    0.67170    0.71780    1.000
    C112     C        0.73345    0.72150    0.83080    1.000
    C113     C        0.68227    0.73240    0.85490    1.000
    C114     C        0.66968    0.79850    0.92660    1.000
    H70      H        0.69360    0.83810    0.95980    1.000
    C115     C        0.62250    0.80620    0.94930    1.000
    H71      H        0.61480    0.85130    0.99740    1.000
    C116     C        0.59793    0.68130    0.83270    1.000
    H72      H        0.57340    0.64000    0.80120    1.000
    C117     C        0.53715    0.76650    0.92540    1.000
    C118     C        0.52472    0.72470    0.99990    1.000
    H73      H        0.54730    0.67710    0.03350    1.000
    C119     C        0.50466    0.83820    0.87370    1.000
    H74      H        0.51400    0.86550    0.82380    1.000
    C120     C        0.45777    0.86840    0.89800    1.000
    C121     C        0.44457    0.82670    0.97290    1.000
    H75      H        0.41320    0.84690    0.98910    1.000
    C122     C        0.46362    0.72350    0.10690    1.000
    C123     C        0.47767    0.75540    0.02380    1.000
    C124     C        0.42301    0.96780    0.84710    1.000
    C125     C        0.76997    0.74440    0.88410    1.000
    H76      H        0.76250    0.76550    0.93530    1.000
    C126     C        0.81724    0.73600    0.86150    1.000
    H77      H        0.84100    0.75430    0.89810    1.000
    N13      N        0.83063    0.70250    0.78880    1.000
    N14      N        0.58723    0.74870    0.90218    1.000
    Zn8      Zn       0.40253    0.80632    0.23386    1.000
    O29      O        0.93593    0.51080    0.22294    1.000
    O30      O        0.92366    0.70710    0.87337    1.000
    O31      O        0.98972    0.86360    0.85057    1.000
    O32      O        0.88655    0.46710    0.12550    1.000
    C127     C        0.14486    0.82730    0.19260    1.000
    H78      H        0.15170    0.87260    0.24110    1.000
    C128     C        0.29561    0.82130    0.26320    1.000
    H79      H        0.30410    0.84490    0.31390    1.000
    C129     C        0.24722    0.81210    0.24440    1.000
    H80      H        0.22400    0.82830    0.28220    1.000
    C130     C        0.23345    0.77850    0.16920    1.000
    C131     C        0.18227    0.76760    0.14510    1.000
    C132     C        0.16968    0.70150    0.07340    1.000
    H81      H        0.19360    0.66190    0.04020    1.000
    C133     C        0.12250    0.69380    0.05070    1.000
    H82      H        0.11480    0.64870    0.00260    1.000
    C134     C        0.09793    0.81870    0.16730    1.000
    H83      H        0.07340    0.86000    0.19880    1.000
    C135     C        0.03715    0.73350    0.07460    1.000
    C136     C        0.02472    0.77530    0.00010    1.000
    H84      H        0.04730    0.82290    0.96650    1.000
    C137     C        0.00466    0.66180    0.12630    1.000
    H85      H        0.01400    0.63450    0.17620    1.000
    C138     C        0.95777    0.63160    0.10200    1.000
    C139     C        0.94457    0.67330    0.02710    1.000
    H86      H        0.91320    0.65310    0.01090    1.000
    C140     C        0.96362    0.77650    0.89310    1.000
    C141     C        0.97767    0.74460    0.97620    1.000
    C142     C        0.92301    0.53220    0.15290    1.000
    C143     C        0.26997    0.75560    0.11590    1.000
    H87      H        0.26250    0.73450    0.06470    1.000
    C144     C        0.31724    0.76400    0.13850    1.000
    H88      H        0.34100    0.74570    0.10190    1.000
    N15      N        0.33063    0.79750    0.21120    1.000
    N16      N        0.08723    0.75130    0.09782    1.000
