# CIF file generated by openbabel 3.1.0, see https://openbabel.org
data_I
_chemical_name_common 'image0'
_cell_length_a 6.7567
_cell_length_b 16.231
_cell_length_c 16.3562
_cell_angle_alpha 90
_cell_angle_beta 97.495
_cell_angle_gamma 90
_space_group_name_H-M_alt 'P 1'
_space_group_name_Hall 'P 1'
loop_
    _symmetry_equiv_pos_as_xyz
    x,y,z
loop_
    _atom_site_label
    _atom_site_type_symbol
    _atom_site_fract_x
    _atom_site_fract_y
    _atom_site_fract_z
    _atom_site_occupancy
    Mg1      Mg       0.44386    0.52570    0.41191    1.000
    O1       O        0.33550    0.41165    0.37594    1.000
    O2       O        0.02370    0.41292    0.40750    1.000
    O3       O        0.04560    0.10304    0.07986    1.000
    O4       O        0.79970    0.07903    0.15441    1.000
    O5       O        0.69046    0.47426    0.48059    1.000
    H1       H        0.68560    0.42580    0.46640    1.000
    N1       N        0.56170    0.52710    0.28728    1.000
    C1       C        0.15800    0.38733    0.36852    1.000
    C2       C        0.10320    0.31961    0.30642    1.000
    C3       C        0.06800    0.24208    0.33310    1.000
    H2       H        0.07710    0.23170    0.38940    1.000
    C4       C        0.01840    0.17793    0.27709    1.000
    H3       H        0.99250    0.12580    0.29670    1.000
    C5       C        0.00730    0.19055    0.19415    1.000
    C6       C        0.03950    0.27082    0.16334    1.000
    C7       C        0.01550    0.28970    0.07798    1.000
    H4       H        0.98310    0.24790    0.03960    1.000
    C8       C        0.03900    0.36823    0.05132    1.000
    H5       H        0.02160    0.37940    0.99510    1.000
    C9       C        0.08930    0.43243    0.10779    1.000
    H6       H        0.10600    0.48570    0.08880    1.000
    C10      C        0.11360    0.41694    0.19018    1.000
    H7       H        0.14670    0.45990    0.22710    1.000
    C11      C        0.08910    0.33625    0.22066    1.000
    C12      C        0.94670    0.11889    0.13830    1.000
    C13      C        0.62180    0.45840    0.25405    1.000
    H8       H        0.66680    0.41540    0.28920    1.000
    C14      C        0.62130    0.44700    0.17118    1.000
    H9       H        0.66540    0.39730    0.15170    1.000
    C15      C        0.55730    0.50740    0.11753    1.000
    C16      C        0.50510    0.58190    0.15100    1.000
    H10      H        0.46850    0.62670    0.11690    1.000
    C17      C        0.50830    0.58870    0.23553    1.000
    H11      H        0.47150    0.63860    0.25710    1.000
    C18      C        0.54730    0.47780    0.02970    1.000
    H12      H        0.60760    0.42850    0.01790    1.000
    C19      C        0.50880    0.53270    0.02460    1.000
    H13      H        0.49410    0.58690    0.00610    1.000
    Mg2      Mg       0.55614    0.02570    0.08809    1.000
    O6       O        0.66450    0.91165    0.12406    1.000
    O7       O        0.97630    0.91292    0.09250    1.000
    O8       O        0.95440    0.60304    0.42014    1.000
    O9       O        0.20030    0.57903    0.34559    1.000
    O10      O        0.30954    0.97426    0.01941    1.000
    H14      H        0.31440    0.92580    0.03360    1.000
    N2       N        0.43830    0.02710    0.21272    1.000
    C20      C        0.84200    0.88733    0.13148    1.000
    C21      C        0.89680    0.81961    0.19358    1.000
    C22      C        0.93200    0.74208    0.16690    1.000
    H15      H        0.92290    0.73170    0.11060    1.000
    C23      C        0.98160    0.67793    0.22291    1.000
    H16      H        0.00750    0.62580    0.20330    1.000
    C24      C        0.99270    0.69055    0.30585    1.000
    C25      C        0.96050    0.77082    0.33666    1.000
    C26      C        0.98450    0.78970    0.42202    1.000
    H17      H        0.01690    0.74790    0.46040    1.000
    C27      C        0.96100    0.86823    0.44868    1.000
    H18      H        0.97840    0.87940    0.50490    1.000
    C28      C        0.91070    0.93243    0.39221    1.000
    H19      H        0.89400    0.98570    0.41120    1.000
    C29      C        0.88640    0.91694    0.30982    1.000
    H20      H        0.85330    0.95990    0.27290    1.000
    C30      C        0.91090    0.83625    0.27934    1.000
    C31      C        0.05330    0.61889    0.36170    1.000
    C32      C        0.37820    0.95840    0.24595    1.000
    H21      H        0.33320    0.91540    0.21080    1.000
    C33      C        0.37870    0.94700    0.32882    1.000
    H22      H        0.33460    0.89730    0.34830    1.000
    C34      C        0.44270    0.00740    0.38247    1.000
    C35      C        0.49490    0.08190    0.34900    1.000
    H23      H        0.53150    0.12670    0.38310    1.000
    C36      C        0.49170    0.08870    0.26447    1.000
    H24      H        0.52850    0.13860    0.24290    1.000
    C37      C        0.45270    0.97780    0.47030    1.000
    H25      H        0.39240    0.92850    0.48210    1.000
    C38      C        0.49120    0.03270    0.47540    1.000
    H26      H        0.50590    0.08690    0.49390    1.000
    Mg3      Mg       0.55614    0.47430    0.58809    1.000
    O11      O        0.66450    0.58835    0.62406    1.000
    O12      O        0.97630    0.58708    0.59250    1.000
    O13      O        0.95440    0.89696    0.92014    1.000
    O14      O        0.20030    0.92097    0.84559    1.000
    O15      O        0.30954    0.52574    0.51941    1.000
    H27      H        0.31440    0.57420    0.53360    1.000
    N3       N        0.43830    0.47290    0.71272    1.000
    C39      C        0.84200    0.61267    0.63148    1.000
    C40      C        0.89680    0.68039    0.69358    1.000
    C41      C        0.93200    0.75792    0.66690    1.000
    H28      H        0.92290    0.76830    0.61060    1.000
    C42      C        0.98160    0.82207    0.72291    1.000
    H29      H        0.00750    0.87420    0.70330    1.000
    C43      C        0.99270    0.80945    0.80585    1.000
    C44      C        0.96050    0.72918    0.83666    1.000
    C45      C        0.98450    0.71030    0.92202    1.000
    H30      H        0.01690    0.75210    0.96040    1.000
    C46      C        0.96100    0.63177    0.94868    1.000
    H31      H        0.97840    0.62060    0.00490    1.000
    C47      C        0.91070    0.56757    0.89221    1.000
    H32      H        0.89400    0.51430    0.91120    1.000
    C48      C        0.88640    0.58306    0.80982    1.000
    H33      H        0.85330    0.54010    0.77290    1.000
    C49      C        0.91090    0.66375    0.77934    1.000
    C50      C        0.05330    0.88111    0.86170    1.000
    C51      C        0.37820    0.54160    0.74595    1.000
    H34      H        0.33320    0.58460    0.71080    1.000
    C52      C        0.37870    0.55300    0.82882    1.000
    H35      H        0.33460    0.60270    0.84830    1.000
    C53      C        0.44270    0.49260    0.88247    1.000
    C54      C        0.49490    0.41810    0.84900    1.000
    H36      H        0.53150    0.37330    0.88310    1.000
    C55      C        0.49170    0.41130    0.76447    1.000
    H37      H        0.52850    0.36140    0.74290    1.000
    C56      C        0.45270    0.52220    0.97030    1.000
    H38      H        0.39240    0.57150    0.98210    1.000
    C57      C        0.49120    0.46730    0.97540    1.000
    H39      H        0.50590    0.41310    0.99390    1.000
    Mg4      Mg       0.44386    0.97430    0.91191    1.000
    O16      O        0.33550    0.08835    0.87594    1.000
    O17      O        0.02370    0.08708    0.90750    1.000
    O18      O        0.04560    0.39696    0.57986    1.000
    O19      O        0.79970    0.42097    0.65441    1.000
    O20      O        0.69046    0.02574    0.98059    1.000
    H40      H        0.68560    0.07420    0.96640    1.000
    N4       N        0.56170    0.97290    0.78728    1.000
    C58      C        0.15800    0.11267    0.86852    1.000
    C59      C        0.10320    0.18039    0.80642    1.000
    C60      C        0.06800    0.25792    0.83310    1.000
    H41      H        0.07710    0.26830    0.88940    1.000
    C61      C        0.01840    0.32207    0.77709    1.000
    H42      H        0.99250    0.37420    0.79670    1.000
    C62      C        0.00730    0.30945    0.69415    1.000
    C63      C        0.03950    0.22918    0.66334    1.000
    C64      C        0.01550    0.21030    0.57798    1.000
    H43      H        0.98310    0.25210    0.53960    1.000
    C65      C        0.03900    0.13177    0.55132    1.000
    H44      H        0.02160    0.12060    0.49510    1.000
    C66      C        0.08930    0.06757    0.60779    1.000
    H45      H        0.10600    0.01430    0.58880    1.000
    C67      C        0.11360    0.08306    0.69018    1.000
    H46      H        0.14670    0.04010    0.72710    1.000
    C68      C        0.08910    0.16375    0.72066    1.000
    C69      C        0.94670    0.38111    0.63830    1.000
    C70      C        0.62180    0.04160    0.75405    1.000
    H47      H        0.66680    0.08460    0.78920    1.000
    C71      C        0.62130    0.05300    0.67118    1.000
    H48      H        0.66540    0.10270    0.65170    1.000
    C72      C        0.55730    0.99260    0.61753    1.000
    C73      C        0.50510    0.91810    0.65100    1.000
    H49      H        0.46850    0.87330    0.61690    1.000
    C74      C        0.50830    0.91130    0.73553    1.000
    H50      H        0.47150    0.86140    0.75710    1.000
    C75      C        0.54730    0.02220    0.52970    1.000
    H51      H        0.60760    0.07150    0.51790    1.000
    C76      C        0.50880    0.96730    0.52460    1.000
    H52      H        0.49410    0.91310    0.50610    1.000
    Mg5      Mg       0.00000    0.50000    0.50000    1.000
    Mg6      Mg       0.00000    0.00000    0.00000    1.000
