# CIF file generated by openbabel 3.1.0, see https://openbabel.org
data_I
_chemical_name_common 'MOCHUI_clean'
_cell_length_a 6.5434
_cell_length_b 6.9311
_cell_length_c 7.7465
_cell_angle_alpha 111.487
_cell_angle_beta 95.645
_cell_angle_gamma 90.833
_space_group_name_H-M_alt 'P 1'
_space_group_name_Hall 'P 1'
loop_
    _symmetry_equiv_pos_as_xyz
    x,y,z
loop_
    _atom_site_label
    _atom_site_type_symbol
    _atom_site_fract_x
    _atom_site_fract_y
    _atom_site_fract_z
    _atom_site_occupancy
    Gd1      Gd       0.87397    0.77948    0.06766    1.000
    Gd2      Gd       0.12603    0.22052    0.93234    1.000
    P1       P        0.32840    0.74792    0.97994    1.000
    P2       P        0.67160    0.25208    0.02006    1.000
    H1       H        0.36220    0.72040    0.79780    1.000
    H2       H        0.63780    0.27960    0.20220    1.000
    C1       C        0.05910    0.90580    0.50090    1.000
    C2       C        0.94090    0.09420    0.49910    1.000
    O1       O        0.19940    0.94150    0.03570    1.000
    O2       O        0.52800    0.77600    0.10480    1.000
    O3       O        0.18250    0.57210    0.97580    1.000
    O4       O        0.05180    0.75540    0.34830    1.000
    O5       O        0.84750    0.08340    0.34740    1.000
    O6       O        0.80060    0.05850    0.96430    1.000
    O7       O        0.47200    0.22400    0.89520    1.000
    O8       O        0.81750    0.42790    0.02420    1.000
    O9       O        0.94820    0.24460    0.65170    1.000
    O10      O        0.15250    0.91660    0.65260    1.000
