# CIF file generated by openbabel 3.1.0, see https://openbabel.org
data_I
_chemical_name_common 'image0'
_cell_length_a 18.2874
_cell_length_b 18.2874
_cell_length_c 19.8488
_cell_angle_alpha 90
_cell_angle_beta 90
_cell_angle_gamma 120
_space_group_name_H-M_alt 'P 1'
_space_group_name_Hall 'P 1'
loop_
    _symmetry_equiv_pos_as_xyz
    x,y,z
loop_
    _atom_site_label
    _atom_site_type_symbol
    _atom_site_fract_x
    _atom_site_fract_y
    _atom_site_fract_z
    _atom_site_occupancy
    Eu1      Eu       0.41688    0.50759    0.55600    1.000
    O1       O        0.31572    0.36343    0.51937    1.000
    O2       O        0.33016    0.57419    0.70344    1.000
    O3       O        0.37750    0.49010    0.66758    1.000
    C1       C        0.35120    0.51960    0.71301    1.000
    C2       C        0.40970    0.52960    0.90101    1.000
    C3       C        0.34650    0.48330    0.78126    1.000
    H1       H        0.37410    0.44920    0.78370    1.000
    C4       C        0.35420    0.53110    0.84641    1.000
    H2       H        0.35500    0.58480    0.84090    1.000
    C5       C        0.36620    0.35390    0.48255    1.000
    C6       C        0.33740    0.26610    0.45370    1.000
    H3       H        0.28280    0.22250    0.47150    1.000
    C7       C        0.27140    0.45260    0.82834    1.000
    C8       C        0.19950    0.46680    0.81190    1.000
    H4       H        0.22030    0.51880    0.78750    1.000
    H5       H        0.17310    0.46970    0.85280    1.000
    H6       H        0.15890    0.42100    0.78470    1.000
    C9       C        0.24380    0.37010    0.86420    1.000
    H7       H        0.20290    0.32430    0.83720    1.000
    H8       H        0.21900    0.37040    0.90680    1.000
    H9       H        0.29180    0.36310    0.87150    1.000
    C10      C        0.39190    0.23020    0.42440    1.000
    H10      H        0.36460    0.16860    0.42750    1.000
    O4       O        0.53699    0.34987    0.40864    1.000
    O5       O        0.51801    0.22684    0.43797    1.000
    C11      C        0.48730    0.27400    0.42652    1.000
    C12      C        0.27270    0.19030    0.33940    1.000
    H11      H        0.25550    0.13750    0.36160    1.000
    H12      H        0.28930    0.18770    0.29400    1.000
    H13      H        0.22650    0.20120    0.33890    1.000
    O6       O        0.43802    0.41615    0.46835    1.000
    O7       O        0.42652    0.58007    0.95033    1.000
    O8       O        0.43484    0.47741    0.89508    1.000
    C13      C        0.34600    0.26010    0.37660    1.000
    C14      C        0.39070    0.33860    0.33250    1.000
    H14      H        0.35630    0.36450    0.32880    1.000
    H15      H        0.39980    0.32300    0.28850    1.000
    H16      H        0.44400    0.37790    0.35240    1.000
    C15      C        0.33240    0.23720    0.39070    1.000
    C16      C        0.36160    0.30310    0.33740    1.000
    H17      H        0.37950    0.35710    0.35770    1.000
    H18      H        0.31620    0.28980    0.30660    1.000
    H19      H        0.40810    0.30490    0.31340    1.000
    C17      C        0.33980    0.26990    0.45940    1.000
    H20      H        0.29410    0.22820    0.48780    1.000
    C18      C        0.39610    0.23550    0.43540    1.000
    H21      H        0.37370    0.17810    0.45290    1.000
    C19      C        0.25570    0.15840    0.36840    1.000
    H22      H        0.21170    0.17060    0.35790    1.000
    H23      H        0.23720    0.11720    0.40380    1.000
    H24      H        0.26890    0.13670    0.32900    1.000
    Eu2      Eu       0.49241    0.90929    0.55600    1.000
    O9       O        0.63657    0.95229    0.51937    1.000
    O10      O        0.42581    0.75597    0.70344    1.000
    O11      O        0.50990    0.88740    0.66758    1.000
    C20      C        0.48040    0.83160    0.71301    1.000
    C21      C        0.47040    0.88010    0.90101    1.000
    C22      C        0.51670    0.86320    0.78126    1.000
    H25      H        0.55080    0.92490    0.78370    1.000
    C23      C        0.46890    0.82310    0.84641    1.000
    H26      H        0.41520    0.77020    0.84090    1.000
    C24      C        0.64610    0.01230    0.48255    1.000
    C25      C        0.73390    0.07130    0.45370    1.000
    H27      H        0.77750    0.06030    0.47150    1.000
    C26      C        0.54740    0.81880    0.82834    1.000
    C27      C        0.53320    0.73270    0.81190    1.000
    H28      H        0.48120    0.70150    0.78750    1.000
    H29      H        0.53030    0.70340    0.85280    1.000
    H30      H        0.57900    0.73790    0.78470    1.000
    C28      C        0.62990    0.87370    0.86420    1.000
    H31      H        0.67570    0.87860    0.83720    1.000
    H32      H        0.62960    0.84860    0.90680    1.000
    H33      H        0.63690    0.92870    0.87150    1.000
    C29      C        0.76980    0.16170    0.42440    1.000
    H34      H        0.83140    0.19600    0.42750    1.000
    O12      O        0.65013    0.18712    0.40864    1.000
    O13      O        0.77316    0.29117    0.43797    1.000
    C30      C        0.72600    0.21330    0.42652    1.000
    C31      C        0.80970    0.08240    0.33940    1.000
    H35      H        0.86250    0.11800    0.36160    1.000
    H36      H        0.81230    0.10160    0.29400    1.000
    H37      H        0.79880    0.02530    0.33890    1.000
    O14      O        0.58385    0.02187    0.46835    1.000
    O15      O        0.41993    0.84645    0.95033    1.000
    O16      O        0.52259    0.95743    0.89508    1.000
    C32      C        0.73990    0.08590    0.37660    1.000
    C33      C        0.66140    0.05210    0.33250    1.000
    H38      H        0.63550    0.99180    0.32880    1.000
    H39      H        0.67700    0.07680    0.28850    1.000
    H40      H        0.62210    0.06610    0.35240    1.000
    C34      C        0.76280    0.09520    0.39070    1.000
    C35      C        0.69690    0.05850    0.33740    1.000
    H41      H        0.64290    0.02240    0.35770    1.000
    H42      H        0.71020    0.02640    0.30660    1.000
    H43      H        0.69510    0.10320    0.31340    1.000
    C36      C        0.73010    0.06990    0.45940    1.000
    H44      H        0.77180    0.06590    0.48780    1.000
    C37      C        0.76450    0.16060    0.43540    1.000
    H45      H        0.82190    0.19560    0.45290    1.000
    C38      C        0.84160    0.09730    0.36840    1.000
    H46      H        0.82940    0.04110    0.35790    1.000
    H47      H        0.88280    0.12000    0.40380    1.000
    H48      H        0.86330    0.13220    0.32900    1.000
    Eu3      Eu       0.09071    0.58312    0.55600    1.000
    O17      O        0.04771    0.68428    0.51937    1.000
    O18      O        0.24403    0.66984    0.70344    1.000
    O19      O        0.11260    0.62250    0.66758    1.000
    C39      C        0.16840    0.64880    0.71301    1.000
    C40      C        0.11990    0.59030    0.90101    1.000
    C41      C        0.13680    0.65350    0.78126    1.000
    H49      H        0.07510    0.62590    0.78370    1.000
    C42      C        0.17690    0.64580    0.84641    1.000
    H50      H        0.22980    0.64500    0.84090    1.000
    C43      C        0.98770    0.63380    0.48255    1.000
    C44      C        0.92870    0.66260    0.45370    1.000
    H51      H        0.93970    0.71720    0.47150    1.000
    C45      C        0.18120    0.72860    0.82834    1.000
    C46      C        0.26730    0.80050    0.81190    1.000
    H52      H        0.29850    0.77970    0.78750    1.000
    H53      H        0.29660    0.82690    0.85280    1.000
    H54      H        0.26210    0.84110    0.78470    1.000
    C47      C        0.12630    0.75620    0.86420    1.000
    H55      H        0.12140    0.79710    0.83720    1.000
    H56      H        0.15140    0.78100    0.90680    1.000
    H57      H        0.07130    0.70820    0.87150    1.000
    C48      C        0.83830    0.60810    0.42440    1.000
    H58      H        0.80400    0.63540    0.42750    1.000
    O20      O        0.81288    0.46301    0.40864    1.000
    O21      O        0.70883    0.48199    0.43797    1.000
    C49      C        0.78670    0.51270    0.42652    1.000
    C50      C        0.91760    0.72730    0.33940    1.000
    H59      H        0.88200    0.74450    0.36160    1.000
    H60      H        0.89840    0.71070    0.29400    1.000
    H61      H        0.97470    0.77350    0.33890    1.000
    O22      O        0.97813    0.56198    0.46835    1.000
    O23      O        0.15355    0.57348    0.95033    1.000
    O24      O        0.04257    0.56516    0.89508    1.000
    C51      C        0.91410    0.65400    0.37660    1.000
    C52      C        0.94790    0.60930    0.33250    1.000
    H62      H        0.00820    0.64370    0.32880    1.000
    H63      H        0.92320    0.60020    0.28850    1.000
    H64      H        0.93390    0.55600    0.35240    1.000
    C53      C        0.90480    0.66760    0.39070    1.000
    C54      C        0.94150    0.63840    0.33740    1.000
    H65      H        0.97760    0.62050    0.35770    1.000
    H66      H        0.97360    0.68380    0.30660    1.000
    H67      H        0.89680    0.59190    0.31340    1.000
    C55      C        0.93010    0.66020    0.45940    1.000
    H68      H        0.93410    0.70590    0.48780    1.000
    C56      C        0.83940    0.60390    0.43540    1.000
    H69      H        0.80440    0.62630    0.45290    1.000
    C57      C        0.90270    0.74430    0.36840    1.000
    H70      H        0.95890    0.78830    0.35790    1.000
    H71      H        0.88000    0.76280    0.40380    1.000
    H72      H        0.86780    0.73110    0.32900    1.000
    Eu4      Eu       0.50759    0.41688    0.94400    1.000
    O25      O        0.36343    0.31572    0.98063    1.000
    O26      O        0.57419    0.33016    0.79656    1.000
    O27      O        0.49010    0.37750    0.83242    1.000
    C58      C        0.51960    0.35120    0.78699    1.000
    C59      C        0.52960    0.40970    0.59899    1.000
    C60      C        0.48330    0.34650    0.71874    1.000
    H73      H        0.44920    0.37410    0.71630    1.000
    C61      C        0.53110    0.35420    0.65359    1.000
    H74      H        0.58480    0.35500    0.65910    1.000
    C62      C        0.35390    0.36620    0.01745    1.000
    C63      C        0.26610    0.33740    0.04630    1.000
    H75      H        0.22250    0.28280    0.02850    1.000
    C64      C        0.45260    0.27140    0.67166    1.000
    C65      C        0.46680    0.19950    0.68810    1.000
    H76      H        0.51880    0.22030    0.71250    1.000
    H77      H        0.46970    0.17310    0.64720    1.000
    H78      H        0.42100    0.15890    0.71530    1.000
    C66      C        0.37010    0.24380    0.63580    1.000
    H79      H        0.32430    0.20290    0.66280    1.000
    H80      H        0.37040    0.21900    0.59320    1.000
    H81      H        0.36310    0.29180    0.62850    1.000
    C67      C        0.23020    0.39190    0.07560    1.000
    H82      H        0.16860    0.36460    0.07250    1.000
    O28      O        0.34987    0.53699    0.09136    1.000
    O29      O        0.22684    0.51801    0.06203    1.000
    C68      C        0.27400    0.48730    0.07348    1.000
    C69      C        0.19030    0.27270    0.16060    1.000
    H83      H        0.13750    0.25550    0.13840    1.000
    H84      H        0.18770    0.28930    0.20600    1.000
    H85      H        0.20120    0.22650    0.16110    1.000
    O30      O        0.41615    0.43802    0.03165    1.000
    O31      O        0.58007    0.42652    0.54967    1.000
    O32      O        0.47741    0.43484    0.60492    1.000
    C70      C        0.26010    0.34600    0.12340    1.000
    C71      C        0.33860    0.39070    0.16750    1.000
    H86      H        0.36450    0.35630    0.17120    1.000
    H87      H        0.32300    0.39980    0.21150    1.000
    H88      H        0.37790    0.44400    0.14760    1.000
    C72      C        0.23720    0.33240    0.10930    1.000
    C73      C        0.30310    0.36160    0.16260    1.000
    H89      H        0.35710    0.37950    0.14230    1.000
    H90      H        0.28980    0.31620    0.19340    1.000
    H91      H        0.30490    0.40810    0.18660    1.000
    C74      C        0.26990    0.33980    0.04060    1.000
    H92      H        0.22820    0.29410    0.01220    1.000
    C75      C        0.23550    0.39610    0.06460    1.000
    H93      H        0.17810    0.37370    0.04710    1.000
    C76      C        0.15840    0.25570    0.13160    1.000
    H94      H        0.17060    0.21170    0.14210    1.000
    H95      H        0.11720    0.23720    0.09620    1.000
    H96      H        0.13670    0.26890    0.17100    1.000
    Eu5      Eu       0.90929    0.49241    0.94400    1.000
    O33      O        0.95229    0.63657    0.98063    1.000
    O34      O        0.75597    0.42581    0.79656    1.000
    O35      O        0.88740    0.50990    0.83242    1.000
    C77      C        0.83160    0.48040    0.78699    1.000
    C78      C        0.88010    0.47040    0.59899    1.000
    C79      C        0.86320    0.51670    0.71874    1.000
    H97      H        0.92490    0.55080    0.71630    1.000
    C80      C        0.82310    0.46890    0.65359    1.000
    H98      H        0.77020    0.41520    0.65910    1.000
    C81      C        0.01230    0.64610    0.01745    1.000
    C82      C        0.07130    0.73390    0.04630    1.000
    H99      H        0.06030    0.77750    0.02850    1.000
    C83      C        0.81880    0.54740    0.67166    1.000
    C84      C        0.73270    0.53320    0.68810    1.000
    H100     H        0.70150    0.48120    0.71250    1.000
    H101     H        0.70340    0.53030    0.64720    1.000
    H102     H        0.73790    0.57900    0.71530    1.000
    C85      C        0.87370    0.62990    0.63580    1.000
    H103     H        0.87860    0.67570    0.66280    1.000
    H104     H        0.84860    0.62960    0.59320    1.000
    H105     H        0.92870    0.63690    0.62850    1.000
    C86      C        0.16170    0.76980    0.07560    1.000
    H106     H        0.19600    0.83140    0.07250    1.000
    O36      O        0.18712    0.65013    0.09136    1.000
    O37      O        0.29117    0.77316    0.06203    1.000
    C87      C        0.21330    0.72600    0.07348    1.000
    C88      C        0.08240    0.80970    0.16060    1.000
    H107     H        0.11800    0.86250    0.13840    1.000
    H108     H        0.10160    0.81230    0.20600    1.000
    H109     H        0.02530    0.79880    0.16110    1.000
    O38      O        0.02187    0.58385    0.03165    1.000
    O39      O        0.84645    0.41993    0.54967    1.000
    O40      O        0.95743    0.52259    0.60492    1.000
    C89      C        0.08590    0.73990    0.12340    1.000
    C90      C        0.05210    0.66140    0.16750    1.000
    H110     H        0.99180    0.63550    0.17120    1.000
    H111     H        0.07680    0.67700    0.21150    1.000
    H112     H        0.06610    0.62210    0.14760    1.000
    C91      C        0.09520    0.76280    0.10930    1.000
    C92      C        0.05850    0.69690    0.16260    1.000
    H113     H        0.02240    0.64290    0.14230    1.000
    H114     H        0.02640    0.71020    0.19340    1.000
    H115     H        0.10320    0.69510    0.18660    1.000
    C93      C        0.06990    0.73010    0.04060    1.000
    H116     H        0.06590    0.77180    0.01220    1.000
    C94      C        0.16060    0.76450    0.06460    1.000
    H117     H        0.19560    0.82190    0.04710    1.000
    C95      C        0.09730    0.84160    0.13160    1.000
    H118     H        0.04110    0.82940    0.14210    1.000
    H119     H        0.12000    0.88280    0.09620    1.000
    H120     H        0.13220    0.86330    0.17100    1.000
    Eu6      Eu       0.58312    0.09071    0.94400    1.000
    O41      O        0.68428    0.04771    0.98063    1.000
    O42      O        0.66984    0.24403    0.79656    1.000
    O43      O        0.62250    0.11260    0.83242    1.000
    C96      C        0.64880    0.16840    0.78699    1.000
    C97      C        0.59030    0.11990    0.59899    1.000
    C98      C        0.65350    0.13680    0.71874    1.000
    H121     H        0.62590    0.07510    0.71630    1.000
    C99      C        0.64580    0.17690    0.65359    1.000
    H122     H        0.64500    0.22980    0.65910    1.000
    C100     C        0.63380    0.98770    0.01745    1.000
    C101     C        0.66260    0.92870    0.04630    1.000
    H123     H        0.71720    0.93970    0.02850    1.000
    C102     C        0.72860    0.18120    0.67166    1.000
    C103     C        0.80050    0.26730    0.68810    1.000
    H124     H        0.77970    0.29850    0.71250    1.000
    H125     H        0.82690    0.29660    0.64720    1.000
    H126     H        0.84110    0.26210    0.71530    1.000
    C104     C        0.75620    0.12630    0.63580    1.000
    H127     H        0.79710    0.12140    0.66280    1.000
    H128     H        0.78100    0.15140    0.59320    1.000
    H129     H        0.70820    0.07130    0.62850    1.000
    C105     C        0.60810    0.83830    0.07560    1.000
    H130     H        0.63540    0.80400    0.07250    1.000
    O44      O        0.46301    0.81288    0.09136    1.000
    O45      O        0.48199    0.70883    0.06203    1.000
    C106     C        0.51270    0.78670    0.07348    1.000
    C107     C        0.72730    0.91760    0.16060    1.000
    H131     H        0.74450    0.88200    0.13840    1.000
    H132     H        0.71070    0.89840    0.20600    1.000
    H133     H        0.77350    0.97470    0.16110    1.000
    O46      O        0.56198    0.97813    0.03165    1.000
    O47      O        0.57348    0.15355    0.54967    1.000
    O48      O        0.56516    0.04257    0.60492    1.000
    C108     C        0.65400    0.91410    0.12340    1.000
    C109     C        0.60930    0.94790    0.16750    1.000
    H134     H        0.64370    0.00820    0.17120    1.000
    H135     H        0.60020    0.92320    0.21150    1.000
    H136     H        0.55600    0.93390    0.14760    1.000
    C110     C        0.66760    0.90480    0.10930    1.000
    C111     C        0.63840    0.94150    0.16260    1.000
    H137     H        0.62050    0.97760    0.14230    1.000
    H138     H        0.68380    0.97360    0.19340    1.000
    H139     H        0.59190    0.89680    0.18660    1.000
    C112     C        0.66020    0.93010    0.04060    1.000
    H140     H        0.70590    0.93410    0.01220    1.000
    C113     C        0.60390    0.83940    0.06460    1.000
    H141     H        0.62630    0.80440    0.04710    1.000
    C114     C        0.74430    0.90270    0.13160    1.000
    H142     H        0.78830    0.95890    0.14210    1.000
    H143     H        0.76280    0.88000    0.09620    1.000
    H144     H        0.73110    0.86780    0.17100    1.000
    Eu7      Eu       0.58312    0.49241    0.44400    1.000
    O49      O        0.68428    0.63657    0.48063    1.000
    O50      O        0.66984    0.42581    0.29656    1.000
    O51      O        0.62250    0.50990    0.33242    1.000
    C115     C        0.64880    0.48040    0.28699    1.000
    C116     C        0.59030    0.47040    0.09899    1.000
    C117     C        0.65350    0.51670    0.21874    1.000
    H145     H        0.62590    0.55080    0.21630    1.000
    C118     C        0.64580    0.46890    0.15359    1.000
    H146     H        0.64500    0.41520    0.15910    1.000
    C119     C        0.63380    0.64610    0.51745    1.000
    C120     C        0.66260    0.73390    0.54630    1.000
    H147     H        0.71720    0.77750    0.52850    1.000
    C121     C        0.72860    0.54740    0.17166    1.000
    C122     C        0.80050    0.53320    0.18810    1.000
    H148     H        0.77970    0.48120    0.21250    1.000
    H149     H        0.82690    0.53030    0.14720    1.000
    H150     H        0.84110    0.57900    0.21530    1.000
    C123     C        0.75620    0.62990    0.13580    1.000
    H151     H        0.79710    0.67570    0.16280    1.000
    H152     H        0.78100    0.62960    0.09320    1.000
    H153     H        0.70820    0.63690    0.12850    1.000
    C124     C        0.60810    0.76980    0.57560    1.000
    H154     H        0.63540    0.83140    0.57250    1.000
    O52      O        0.46301    0.65013    0.59136    1.000
    O53      O        0.48199    0.77316    0.56203    1.000
    C125     C        0.51270    0.72600    0.57348    1.000
    C126     C        0.72730    0.80970    0.66060    1.000
    H155     H        0.74450    0.86250    0.63840    1.000
    H156     H        0.71070    0.81230    0.70600    1.000
    H157     H        0.77350    0.79880    0.66110    1.000
    O54      O        0.56198    0.58385    0.53165    1.000
    O55      O        0.57348    0.41993    0.04967    1.000
    O56      O        0.56516    0.52259    0.10492    1.000
    C127     C        0.65400    0.73990    0.62340    1.000
    C128     C        0.60930    0.66140    0.66750    1.000
    H158     H        0.64370    0.63550    0.67120    1.000
    H159     H        0.60020    0.67700    0.71150    1.000
    H160     H        0.55600    0.62210    0.64760    1.000
    C129     C        0.66760    0.76280    0.60930    1.000
    C130     C        0.63840    0.69690    0.66260    1.000
    H161     H        0.62050    0.64290    0.64230    1.000
    H162     H        0.68380    0.71020    0.69340    1.000
    H163     H        0.59190    0.69510    0.68660    1.000
    C131     C        0.66020    0.73010    0.54060    1.000
    H164     H        0.70590    0.77180    0.51220    1.000
    C132     C        0.60390    0.76450    0.56460    1.000
    H165     H        0.62630    0.82190    0.54710    1.000
    C133     C        0.74430    0.84160    0.63160    1.000
    H166     H        0.78830    0.82940    0.64210    1.000
    H167     H        0.76280    0.88280    0.59620    1.000
    H168     H        0.73110    0.86330    0.67100    1.000
    Eu8      Eu       0.50759    0.09071    0.44400    1.000
    O57      O        0.36343    0.04771    0.48063    1.000
    O58      O        0.57419    0.24403    0.29656    1.000
    O59      O        0.49010    0.11260    0.33242    1.000
    C134     C        0.51960    0.16840    0.28699    1.000
    C135     C        0.52960    0.11990    0.09899    1.000
    C136     C        0.48330    0.13680    0.21874    1.000
    H169     H        0.44920    0.07510    0.21630    1.000
    C137     C        0.53110    0.17690    0.15359    1.000
    H170     H        0.58480    0.22980    0.15910    1.000
    C138     C        0.35390    0.98770    0.51745    1.000
    C139     C        0.26610    0.92870    0.54630    1.000
    H171     H        0.22250    0.93970    0.52850    1.000
    C140     C        0.45260    0.18120    0.17166    1.000
    C141     C        0.46680    0.26730    0.18810    1.000
    H172     H        0.51880    0.29850    0.21250    1.000
    H173     H        0.46970    0.29660    0.14720    1.000
    H174     H        0.42100    0.26210    0.21530    1.000
    C142     C        0.37010    0.12630    0.13580    1.000
    H175     H        0.32430    0.12140    0.16280    1.000
    H176     H        0.37040    0.15140    0.09320    1.000
    H177     H        0.36310    0.07130    0.12850    1.000
    C143     C        0.23020    0.83830    0.57560    1.000
    H178     H        0.16860    0.80400    0.57250    1.000
    O60      O        0.34987    0.81288    0.59136    1.000
    O61      O        0.22684    0.70883    0.56203    1.000
    C144     C        0.27400    0.78670    0.57348    1.000
    C145     C        0.19030    0.91760    0.66060    1.000
    H179     H        0.13750    0.88200    0.63840    1.000
    H180     H        0.18770    0.89840    0.70600    1.000
    H181     H        0.20120    0.97470    0.66110    1.000
    O62      O        0.41615    0.97813    0.53165    1.000
    O63      O        0.58007    0.15355    0.04967    1.000
    O64      O        0.47741    0.04257    0.10492    1.000
    C146     C        0.26010    0.91410    0.62340    1.000
    C147     C        0.33860    0.94790    0.66750    1.000
    H182     H        0.36450    0.00820    0.67120    1.000
    H183     H        0.32300    0.92320    0.71150    1.000
    H184     H        0.37790    0.93390    0.64760    1.000
    C148     C        0.23720    0.90480    0.60930    1.000
    C149     C        0.30310    0.94150    0.66260    1.000
    H185     H        0.35710    0.97760    0.64230    1.000
    H186     H        0.28980    0.97360    0.69340    1.000
    H187     H        0.30490    0.89680    0.68660    1.000
    C150     C        0.26990    0.93010    0.54060    1.000
    H188     H        0.22820    0.93410    0.51220    1.000
    C151     C        0.23550    0.83940    0.56460    1.000
    H189     H        0.17810    0.80440    0.54710    1.000
    C152     C        0.15840    0.90270    0.63160    1.000
    H190     H        0.17060    0.95890    0.64210    1.000
    H191     H        0.11720    0.88000    0.59620    1.000
    H192     H        0.13670    0.86780    0.67100    1.000
    Eu9      Eu       0.90929    0.41688    0.44400    1.000
    O65      O        0.95229    0.31572    0.48063    1.000
    O66      O        0.75597    0.33016    0.29656    1.000
    O67      O        0.88740    0.37750    0.33242    1.000
    C153     C        0.83160    0.35120    0.28699    1.000
    C154     C        0.88010    0.40970    0.09899    1.000
    C155     C        0.86320    0.34650    0.21874    1.000
    H193     H        0.92490    0.37410    0.21630    1.000
    C156     C        0.82310    0.35420    0.15359    1.000
    H194     H        0.77020    0.35500    0.15910    1.000
    C157     C        0.01230    0.36620    0.51745    1.000
    C158     C        0.07130    0.33740    0.54630    1.000
    H195     H        0.06030    0.28280    0.52850    1.000
    C159     C        0.81880    0.27140    0.17166    1.000
    C160     C        0.73270    0.19950    0.18810    1.000
    H196     H        0.70150    0.22030    0.21250    1.000
    H197     H        0.70340    0.17310    0.14720    1.000
    H198     H        0.73790    0.15890    0.21530    1.000
    C161     C        0.87370    0.24380    0.13580    1.000
    H199     H        0.87860    0.20290    0.16280    1.000
    H200     H        0.84860    0.21900    0.09320    1.000
    H201     H        0.92870    0.29180    0.12850    1.000
    C162     C        0.16170    0.39190    0.57560    1.000
    H202     H        0.19600    0.36460    0.57250    1.000
    O68      O        0.18712    0.53699    0.59136    1.000
    O69      O        0.29117    0.51801    0.56203    1.000
    C163     C        0.21330    0.48730    0.57348    1.000
    C164     C        0.08240    0.27270    0.66060    1.000
    H203     H        0.11800    0.25550    0.63840    1.000
    H204     H        0.10160    0.28930    0.70600    1.000
    H205     H        0.02530    0.22650    0.66110    1.000
    O70      O        0.02187    0.43802    0.53165    1.000
    O71      O        0.84645    0.42652    0.04967    1.000
    O72      O        0.95743    0.43484    0.10492    1.000
    C165     C        0.08590    0.34600    0.62340    1.000
    C166     C        0.05210    0.39070    0.66750    1.000
    H206     H        0.99180    0.35630    0.67120    1.000
    H207     H        0.07680    0.39980    0.71150    1.000
    H208     H        0.06610    0.44400    0.64760    1.000
    C167     C        0.09520    0.33240    0.60930    1.000
    C168     C        0.05850    0.36160    0.66260    1.000
    H209     H        0.02240    0.37950    0.64230    1.000
    H210     H        0.02640    0.31620    0.69340    1.000
    H211     H        0.10320    0.40810    0.68660    1.000
    C169     C        0.06990    0.33980    0.54060    1.000
    H212     H        0.06590    0.29410    0.51220    1.000
    C170     C        0.16060    0.39610    0.56460    1.000
    H213     H        0.19560    0.37370    0.54710    1.000
    C171     C        0.09730    0.25570    0.63160    1.000
    H214     H        0.04110    0.21170    0.64210    1.000
    H215     H        0.12000    0.23720    0.59620    1.000
    H216     H        0.13220    0.26890    0.67100    1.000
    Eu10     Eu       0.49241    0.58312    0.05600    1.000
    O73      O        0.63657    0.68428    0.01937    1.000
    O74      O        0.42581    0.66984    0.20344    1.000
    O75      O        0.50990    0.62250    0.16758    1.000
    C172     C        0.48040    0.64880    0.21301    1.000
    C173     C        0.47040    0.59030    0.40101    1.000
    C174     C        0.51670    0.65350    0.28126    1.000
    H217     H        0.55080    0.62590    0.28370    1.000
    C175     C        0.46890    0.64580    0.34641    1.000
    H218     H        0.41520    0.64500    0.34090    1.000
    C176     C        0.64610    0.63380    0.98255    1.000
    C177     C        0.73390    0.66260    0.95370    1.000
    H219     H        0.77750    0.71720    0.97150    1.000
    C178     C        0.54740    0.72860    0.32834    1.000
    C179     C        0.53320    0.80050    0.31190    1.000
    H220     H        0.48120    0.77970    0.28750    1.000
    H221     H        0.53030    0.82690    0.35280    1.000
    H222     H        0.57900    0.84110    0.28470    1.000
    C180     C        0.62990    0.75620    0.36420    1.000
    H223     H        0.67570    0.79710    0.33720    1.000
    H224     H        0.62960    0.78100    0.40680    1.000
    H225     H        0.63690    0.70820    0.37150    1.000
    C181     C        0.76980    0.60810    0.92440    1.000
    H226     H        0.83140    0.63540    0.92750    1.000
    O76      O        0.65013    0.46301    0.90864    1.000
    O77      O        0.77316    0.48199    0.93797    1.000
    C182     C        0.72600    0.51270    0.92652    1.000
    C183     C        0.80970    0.72730    0.83940    1.000
    H227     H        0.86250    0.74450    0.86160    1.000
    H228     H        0.81230    0.71070    0.79400    1.000
    H229     H        0.79880    0.77350    0.83890    1.000
    O78      O        0.58385    0.56198    0.96835    1.000
    O79      O        0.41993    0.57348    0.45033    1.000
    O80      O        0.52259    0.56516    0.39508    1.000
    C184     C        0.73990    0.65400    0.87660    1.000
    C185     C        0.66140    0.60930    0.83250    1.000
    H230     H        0.63550    0.64370    0.82880    1.000
    H231     H        0.67700    0.60020    0.78850    1.000
    H232     H        0.62210    0.55600    0.85240    1.000
    C186     C        0.76280    0.66760    0.89070    1.000
    C187     C        0.69690    0.63840    0.83740    1.000
    H233     H        0.64290    0.62050    0.85770    1.000
    H234     H        0.71020    0.68380    0.80660    1.000
    H235     H        0.69510    0.59190    0.81340    1.000
    C188     C        0.73010    0.66020    0.95940    1.000
    H236     H        0.77180    0.70590    0.98780    1.000
    C189     C        0.76450    0.60390    0.93540    1.000
    H237     H        0.82190    0.62630    0.95290    1.000
    C190     C        0.84160    0.74430    0.86840    1.000
    H238     H        0.82940    0.78830    0.85790    1.000
    H239     H        0.88280    0.76280    0.90380    1.000
    H240     H        0.86330    0.73110    0.82900    1.000
    Eu11     Eu       0.09071    0.50759    0.05600    1.000
    O81      O        0.04771    0.36343    0.01937    1.000
    O82      O        0.24403    0.57419    0.20344    1.000
    O83      O        0.11260    0.49010    0.16758    1.000
    C191     C        0.16840    0.51960    0.21301    1.000
    C192     C        0.11990    0.52960    0.40101    1.000
    C193     C        0.13680    0.48330    0.28126    1.000
    H241     H        0.07510    0.44920    0.28370    1.000
    C194     C        0.17690    0.53110    0.34641    1.000
    H242     H        0.22980    0.58480    0.34090    1.000
    C195     C        0.98770    0.35390    0.98255    1.000
    C196     C        0.92870    0.26610    0.95370    1.000
    H243     H        0.93970    0.22250    0.97150    1.000
    C197     C        0.18120    0.45260    0.32834    1.000
    C198     C        0.26730    0.46680    0.31190    1.000
    H244     H        0.29850    0.51880    0.28750    1.000
    H245     H        0.29660    0.46970    0.35280    1.000
    H246     H        0.26210    0.42100    0.28470    1.000
    C199     C        0.12630    0.37010    0.36420    1.000
    H247     H        0.12140    0.32430    0.33720    1.000
    H248     H        0.15140    0.37040    0.40680    1.000
    H249     H        0.07130    0.36310    0.37150    1.000
    C200     C        0.83830    0.23020    0.92440    1.000
    H250     H        0.80400    0.16860    0.92750    1.000
    O84      O        0.81288    0.34987    0.90864    1.000
    O85      O        0.70883    0.22684    0.93797    1.000
    C201     C        0.78670    0.27400    0.92652    1.000
    C202     C        0.91760    0.19030    0.83940    1.000
    H251     H        0.88200    0.13750    0.86160    1.000
    H252     H        0.89840    0.18770    0.79400    1.000
    H253     H        0.97470    0.20120    0.83890    1.000
    O86      O        0.97813    0.41615    0.96835    1.000
    O87      O        0.15355    0.58007    0.45033    1.000
    O88      O        0.04257    0.47741    0.39508    1.000
    C203     C        0.91410    0.26010    0.87660    1.000
    C204     C        0.94790    0.33860    0.83250    1.000
    H254     H        0.00820    0.36450    0.82880    1.000
    H255     H        0.92320    0.32300    0.78850    1.000
    H256     H        0.93390    0.37790    0.85240    1.000
    C205     C        0.90480    0.23720    0.89070    1.000
    C206     C        0.94150    0.30310    0.83740    1.000
    H257     H        0.97760    0.35710    0.85770    1.000
    H258     H        0.97360    0.28980    0.80660    1.000
    H259     H        0.89680    0.30490    0.81340    1.000
    C207     C        0.93010    0.26990    0.95940    1.000
    H260     H        0.93410    0.22820    0.98780    1.000
    C208     C        0.83940    0.23550    0.93540    1.000
    H261     H        0.80440    0.17810    0.95290    1.000
    C209     C        0.90270    0.15840    0.86840    1.000
    H262     H        0.95890    0.17060    0.85790    1.000
    H263     H        0.88000    0.11720    0.90380    1.000
    H264     H        0.86780    0.13670    0.82900    1.000
    Eu12     Eu       0.41688    0.90929    0.05600    1.000
    O89      O        0.31572    0.95229    0.01937    1.000
    O90      O        0.33016    0.75597    0.20344    1.000
    O91      O        0.37750    0.88740    0.16758    1.000
    C210     C        0.35120    0.83160    0.21301    1.000
    C211     C        0.40970    0.88010    0.40101    1.000
    C212     C        0.34650    0.86320    0.28126    1.000
    H265     H        0.37410    0.92490    0.28370    1.000
    C213     C        0.35420    0.82310    0.34641    1.000
    H266     H        0.35500    0.77020    0.34090    1.000
    C214     C        0.36620    0.01230    0.98255    1.000
    C215     C        0.33740    0.07130    0.95370    1.000
    H267     H        0.28280    0.06030    0.97150    1.000
    C216     C        0.27140    0.81880    0.32834    1.000
    C217     C        0.19950    0.73270    0.31190    1.000
    H268     H        0.22030    0.70150    0.28750    1.000
    H269     H        0.17310    0.70340    0.35280    1.000
    H270     H        0.15890    0.73790    0.28470    1.000
    C218     C        0.24380    0.87370    0.36420    1.000
    H271     H        0.20290    0.87860    0.33720    1.000
    H272     H        0.21900    0.84860    0.40680    1.000
    H273     H        0.29180    0.92870    0.37150    1.000
    C219     C        0.39190    0.16170    0.92440    1.000
    H274     H        0.36460    0.19600    0.92750    1.000
    O92      O        0.53699    0.18712    0.90864    1.000
    O93      O        0.51801    0.29117    0.93797    1.000
    C220     C        0.48730    0.21330    0.92652    1.000
    C221     C        0.27270    0.08240    0.83940    1.000
    H275     H        0.25550    0.11800    0.86160    1.000
    H276     H        0.28930    0.10160    0.79400    1.000
    H277     H        0.22650    0.02530    0.83890    1.000
    O94      O        0.43802    0.02187    0.96835    1.000
    O95      O        0.42652    0.84645    0.45033    1.000
    O96      O        0.43484    0.95743    0.39508    1.000
    C222     C        0.34600    0.08590    0.87660    1.000
    C223     C        0.39070    0.05210    0.83250    1.000
    H278     H        0.35630    0.99180    0.82880    1.000
    H279     H        0.39980    0.07680    0.78850    1.000
    H280     H        0.44400    0.06610    0.85240    1.000
    C224     C        0.33240    0.09520    0.89070    1.000
    C225     C        0.36160    0.05850    0.83740    1.000
    H281     H        0.37950    0.02240    0.85770    1.000
    H282     H        0.31620    0.02640    0.80660    1.000
    H283     H        0.40810    0.10320    0.81340    1.000
    C226     C        0.33980    0.06990    0.95940    1.000
    H284     H        0.29410    0.06590    0.98780    1.000
    C227     C        0.39610    0.16060    0.93540    1.000
    H285     H        0.37370    0.19560    0.95290    1.000
    C228     C        0.25570    0.09730    0.86840    1.000
    H286     H        0.21170    0.04110    0.85790    1.000
    H287     H        0.23720    0.12000    0.90380    1.000
    H288     H        0.26890    0.13220    0.82900    1.000
    Eu13     Eu       0.33333    0.66667    0.61850    1.000
    Eu14     Eu       0.66667    0.33333    0.88150    1.000
    Eu15     Eu       0.66667    0.33333    0.38150    1.000
    Eu16     Eu       0.33333    0.66667    0.11850    1.000
