# CIF file generated by openbabel 3.1.0, see https://openbabel.org
data_I
_chemical_name_common 'image0'
_cell_length_a 11.3504
_cell_length_b 12.1923
_cell_length_c 16.1827
_cell_angle_alpha 90
_cell_angle_beta 130.491
_cell_angle_gamma 90
_space_group_name_H-M_alt 'P 1'
_space_group_name_Hall 'P 1'
loop_
    _symmetry_equiv_pos_as_xyz
    x,y,z
loop_
    _atom_site_label
    _atom_site_type_symbol
    _atom_site_fract_x
    _atom_site_fract_y
    _atom_site_fract_z
    _atom_site_occupancy
    Zn1      Zn       0.82070    0.02369    0.48117    1.000
    S1       S        0.97655    0.95931    0.71643    1.000
    O1       O        0.92500    0.92376    0.61078    1.000
    O2       O        0.13290    0.92590    0.80350    1.000
    O3       O        0.94510    0.07277    0.71610    1.000
    O4       O        0.39570    0.98010    0.55870    1.000
    O5       O        0.36240    0.85461    0.63410    1.000
    O6       O        0.78290    0.57828    0.87185    1.000
    O7       O        0.02376    0.63850    0.96179    1.000
    C1       C        0.85730    0.88480    0.73192    1.000
    C2       C        0.70490    0.91830    0.67216    1.000
    H1       H        0.66700    0.97740    0.62460    1.000
    C3       C        0.60950    0.86350    0.68357    1.000
    C4       C        0.44590    0.90040    0.62210    1.000
    C5       C        0.66620    0.77448    0.75327    1.000
    H2       H        0.60180    0.73710    0.76050    1.000
    C6       C        0.81880    0.74080    0.81243    1.000
    C7       C        0.91510    0.79688    0.80191    1.000
    H3       H        0.01760    0.77520    0.84180    1.000
    C8       C        0.88060    0.64504    0.88781    1.000
    Zn2      Zn       0.17930    0.52369    0.01883    1.000
    S2       S        0.02345    0.45931    0.78357    1.000
    O8       O        0.07500    0.42376    0.88922    1.000
    O9       O        0.86710    0.42590    0.69650    1.000
    O10      O        0.05490    0.57277    0.78390    1.000
    O11      O        0.60430    0.48010    0.94130    1.000
    O12      O        0.63760    0.35461    0.86590    1.000
    O13      O        0.21710    0.07828    0.62815    1.000
    O14      O        0.97624    0.13850    0.53821    1.000
    C9       C        0.14270    0.38480    0.76808    1.000
    C10      C        0.29510    0.41830    0.82784    1.000
    H4       H        0.33300    0.47740    0.87540    1.000
    C11      C        0.39050    0.36350    0.81643    1.000
    C12      C        0.55410    0.40040    0.87790    1.000
    C13      C        0.33380    0.27448    0.74673    1.000
    H5       H        0.39820    0.23710    0.73950    1.000
    C14      C        0.18120    0.24080    0.68757    1.000
    C15      C        0.08490    0.29688    0.69809    1.000
    H6       H        0.98240    0.27520    0.65820    1.000
    C16      C        0.11940    0.14504    0.61219    1.000
    Zn3      Zn       0.17930    0.97631    0.51883    1.000
    S3       S        0.02345    0.04069    0.28357    1.000
    O15      O        0.07500    0.07624    0.38922    1.000
    O16      O        0.86710    0.07410    0.19650    1.000
    O17      O        0.05490    0.92723    0.28390    1.000
    O18      O        0.60430    0.01990    0.44130    1.000
    O19      O        0.63760    0.14539    0.36590    1.000
    O20      O        0.21710    0.42172    0.12815    1.000
    O21      O        0.97624    0.36150    0.03821    1.000
    C17      C        0.14270    0.11520    0.26808    1.000
    C18      C        0.29510    0.08170    0.32784    1.000
    H7       H        0.33300    0.02260    0.37540    1.000
    C19      C        0.39050    0.13650    0.31643    1.000
    C20      C        0.55410    0.09960    0.37790    1.000
    C21      C        0.33380    0.22552    0.24673    1.000
    H8       H        0.39820    0.26290    0.23950    1.000
    C22      C        0.18120    0.25920    0.18757    1.000
    C23      C        0.08490    0.20312    0.19809    1.000
    H9       H        0.98240    0.22480    0.15820    1.000
    C24      C        0.11940    0.35496    0.11219    1.000
    Zn4      Zn       0.82070    0.47631    0.98117    1.000
    S4       S        0.97655    0.54069    0.21643    1.000
    O22      O        0.92500    0.57624    0.11078    1.000
    O23      O        0.13290    0.57410    0.30350    1.000
    O24      O        0.94510    0.42723    0.21610    1.000
    O25      O        0.39570    0.51990    0.05870    1.000
    O26      O        0.36240    0.64539    0.13410    1.000
    O27      O        0.78290    0.92172    0.37185    1.000
    O28      O        0.02376    0.86150    0.46179    1.000
    C25      C        0.85730    0.61520    0.23192    1.000
    C26      C        0.70490    0.58170    0.17216    1.000
    H10      H        0.66700    0.52260    0.12460    1.000
    C27      C        0.60950    0.63650    0.18357    1.000
    C28      C        0.44590    0.59960    0.12210    1.000
    C29      C        0.66620    0.72552    0.25327    1.000
    H11      H        0.60180    0.76290    0.26050    1.000
    C30      C        0.81880    0.75920    0.31243    1.000
    C31      C        0.91510    0.70312    0.30191    1.000
    H12      H        0.01760    0.72480    0.34180    1.000
    C32      C        0.88060    0.85496    0.38781    1.000
