# CIF file generated by openbabel 3.1.0, see https://openbabel.org
data_I
_chemical_name_common 'BIBBUL_clean'
_cell_length_a 8.7076
_cell_length_b 15.686
_cell_length_c 19.368
_cell_angle_alpha 90
_cell_angle_beta 90
_cell_angle_gamma 90
_space_group_name_H-M_alt 'P 1'
_space_group_name_Hall 'P 1'
loop_
    _symmetry_equiv_pos_as_xyz
    x,y,z
loop_
    _atom_site_label
    _atom_site_type_symbol
    _atom_site_fract_x
    _atom_site_fract_y
    _atom_site_fract_z
    _atom_site_occupancy
    Zn1      Zn       0.44295    0.03777    0.74239    1.000
    Zn2      Zn       0.05705    0.96223    0.24239    1.000
    Zn3      Zn       0.55705    0.53777    0.75761    1.000
    Zn4      Zn       0.94295    0.46223    0.25761    1.000
    H1       H        0.07150    0.15090    0.86140    1.000
    H2       H        0.94160    0.23840    0.93650    1.000
    H3       H        0.01890    0.24190    0.05170    1.000
    H4       H        0.52470    0.94600    0.15510    1.000
    H5       H        0.74910    0.96890    0.09490    1.000
    H6       H        0.74550    0.04630    0.99530    1.000
    H7       H        0.51670    0.15970    0.61150    1.000
    H8       H        0.66070    0.29150    0.62050    1.000
    H9       H        0.72110    0.21940    0.85050    1.000
    H10      H        0.60270    0.14410    0.84970    1.000
    H11      H        0.77410    0.12780    0.82880    1.000
    H12      H        0.78650    0.37640    0.72020    1.000
    H13      H        0.75900    0.34120    0.79500    1.000
    H14      H        0.97710    0.25360    0.78480    1.000
    H15      H        0.02190    0.34960    0.77620    1.000
    H16      H        0.98160    0.23850    0.66600    1.000
    H17      H        0.03390    0.33350    0.65930    1.000
    H18      H        0.24570    0.25070    0.64530    1.000
    H19      H        0.21110    0.19980    0.71320    1.000
    H20      H        0.32430    0.26070    0.82750    1.000
    H21      H        0.47430    0.38850    0.85770    1.000
    H22      H        0.41510    0.46150    0.62470    1.000
    H23      H        0.33600    0.37520    0.60470    1.000
    H24      H        0.23750    0.45050    0.63430    1.000
    H25      H        0.42850    0.84910    0.36140    1.000
    H26      H        0.55840    0.76160    0.43650    1.000
    H27      H        0.48110    0.75810    0.55170    1.000
    H28      H        0.97530    0.05400    0.65510    1.000
    H29      H        0.75090    0.03110    0.59490    1.000
    H30      H        0.75450    0.95370    0.49530    1.000
    H31      H        0.98330    0.84030    0.11150    1.000
    H32      H        0.83930    0.70850    0.12050    1.000
    H33      H        0.77890    0.78060    0.35050    1.000
    H34      H        0.89730    0.85590    0.34970    1.000
    H35      H        0.72590    0.87220    0.32880    1.000
    H36      H        0.71350    0.62360    0.22020    1.000
    H37      H        0.74100    0.65880    0.29500    1.000
    H38      H        0.52290    0.74640    0.28480    1.000
    H39      H        0.47810    0.65040    0.27620    1.000
    H40      H        0.51840    0.76150    0.16600    1.000
    H41      H        0.46610    0.66650    0.15930    1.000
    H42      H        0.25430    0.74930    0.14530    1.000
    H43      H        0.28890    0.80020    0.21320    1.000
    H44      H        0.17570    0.73930    0.32750    1.000
    H45      H        0.02570    0.61150    0.35770    1.000
    H46      H        0.08490    0.53850    0.12470    1.000
    H47      H        0.16400    0.62480    0.10470    1.000
    H48      H        0.26250    0.54950    0.13430    1.000
    H49      H        0.92850    0.65090    0.63860    1.000
    H50      H        0.05840    0.73840    0.56350    1.000
    H51      H        0.98110    0.74190    0.44830    1.000
    H52      H        0.47530    0.44600    0.34490    1.000
    H53      H        0.25090    0.46890    0.40510    1.000
    H54      H        0.25450    0.54630    0.50470    1.000
    H55      H        0.48330    0.65970    0.88850    1.000
    H56      H        0.33930    0.79150    0.87950    1.000
    H57      H        0.27890    0.71940    0.64950    1.000
    H58      H        0.39730    0.64410    0.65030    1.000
    H59      H        0.22590    0.62780    0.67120    1.000
    H60      H        0.21350    0.87640    0.77980    1.000
    H61      H        0.24100    0.84120    0.70500    1.000
    H62      H        0.02290    0.75360    0.71520    1.000
    H63      H        0.97810    0.84960    0.72380    1.000
    H64      H        0.01840    0.73850    0.83400    1.000
    H65      H        0.96610    0.83350    0.84070    1.000
    H66      H        0.75430    0.75070    0.85470    1.000
    H67      H        0.78890    0.69980    0.78680    1.000
    H68      H        0.67570    0.76070    0.67250    1.000
    H69      H        0.52570    0.88850    0.64230    1.000
    H70      H        0.58490    0.96150    0.87530    1.000
    H71      H        0.66400    0.87520    0.89530    1.000
    H72      H        0.76250    0.95050    0.86570    1.000
    H73      H        0.57150    0.34910    0.13860    1.000
    H74      H        0.44160    0.26160    0.06350    1.000
    H75      H        0.51890    0.25810    0.94830    1.000
    H76      H        0.02470    0.55400    0.84490    1.000
    H77      H        0.24910    0.53110    0.90510    1.000
    H78      H        0.24550    0.45370    0.00470    1.000
    H79      H        0.01670    0.34030    0.38850    1.000
    H80      H        0.16070    0.20850    0.37950    1.000
    H81      H        0.22110    0.28060    0.14950    1.000
    H82      H        0.10270    0.35590    0.15030    1.000
    H83      H        0.27410    0.37220    0.17120    1.000
    H84      H        0.28650    0.12360    0.27980    1.000
    H85      H        0.25900    0.15880    0.20500    1.000
    H86      H        0.47710    0.24640    0.21520    1.000
    H87      H        0.52190    0.15040    0.22380    1.000
    H88      H        0.48160    0.26150    0.33400    1.000
    H89      H        0.53390    0.16650    0.34070    1.000
    H90      H        0.74570    0.24930    0.35470    1.000
    H91      H        0.71110    0.30020    0.28680    1.000
    H92      H        0.82430    0.23930    0.17250    1.000
    H93      H        0.97430    0.11150    0.14230    1.000
    H94      H        0.91510    0.03850    0.37530    1.000
    H95      H        0.83600    0.12480    0.39530    1.000
    H96      H        0.73750    0.04950    0.36570    1.000
    C1       C        0.29760    0.04430    0.87930    1.000
    C2       C        0.21880    0.10230    0.93100    1.000
    C3       C        0.09960    0.15270    0.90770    1.000
    C4       C        0.02290    0.20480    0.95170    1.000
    C5       C        0.07050    0.20630    0.02110    1.000
    C6       C        0.25850    0.10600    0.00080    1.000
    C7       C        0.39290    0.05840    0.02840    1.000
    C8       C        0.38610    0.01150    0.08930    1.000
    C9       C        0.52370    0.97760    0.11450    1.000
    C10      C        0.65690    0.99120    0.07870    1.000
    C11      C        0.65400    0.03760    0.01910    1.000
    C12      C        0.23770    0.99060    0.12590    1.000
    C13      C        0.56630    0.17940    0.65100    1.000
    C14      C        0.64620    0.25180    0.65550    1.000
    C15      C        0.65420    0.18720    0.75600    1.000
    C16      C        0.69110    0.16800    0.82730    1.000
    C17      C        0.79700    0.32650    0.74940    1.000
    C18      C        0.96720    0.30270    0.75470    1.000
    C19      C        0.04020    0.28320    0.68840    1.000
    C20      C        0.20550    0.25560    0.69190    1.000
    C21      C        0.34650    0.30650    0.79870    1.000
    C22      C        0.42940    0.37740    0.81510    1.000
    C23      C        0.36000    0.39040    0.70610    1.000
    C24      C        0.33500    0.42210    0.63660    1.000
    C25      C        0.20240    0.95570    0.37930    1.000
    C26      C        0.28120    0.89770    0.43100    1.000
    C27      C        0.40040    0.84730    0.40770    1.000
    C28      C        0.47710    0.79520    0.45170    1.000
    C29      C        0.42950    0.79370    0.52110    1.000
    C30      C        0.24150    0.89400    0.50080    1.000
    C31      C        0.10710    0.94160    0.52840    1.000
    C32      C        0.11390    0.98850    0.58930    1.000
    C33      C        0.97630    0.02240    0.61450    1.000
    C34      C        0.84310    0.00880    0.57870    1.000
    C35      C        0.84600    0.96240    0.51910    1.000
    C36      C        0.26230    0.00940    0.62590    1.000
    C37      C        0.93370    0.82060    0.15100    1.000
    C38      C        0.85380    0.74820    0.15550    1.000
    C39      C        0.84580    0.81280    0.25600    1.000
    C40      C        0.80890    0.83200    0.32730    1.000
    C41      C        0.70300    0.67350    0.24940    1.000
    C42      C        0.53280    0.69730    0.25470    1.000
    C43      C        0.45980    0.71680    0.18840    1.000
    C44      C        0.29450    0.74440    0.19190    1.000
    C45      C        0.15350    0.69350    0.29870    1.000
    C46      C        0.07060    0.62260    0.31510    1.000
    C47      C        0.14000    0.60960    0.20610    1.000
    C48      C        0.16500    0.57790    0.13660    1.000
    C49      C        0.70240    0.54430    0.62070    1.000
    C50      C        0.78120    0.60230    0.56900    1.000
    C51      C        0.90040    0.65270    0.59230    1.000
    C52      C        0.97710    0.70480    0.54830    1.000
    C53      C        0.92950    0.70630    0.47890    1.000
    C54      C        0.74150    0.60600    0.49920    1.000
    C55      C        0.60710    0.55840    0.47160    1.000
    C56      C        0.61390    0.51150    0.41070    1.000
    C57      C        0.47630    0.47760    0.38550    1.000
    C58      C        0.34310    0.49120    0.42130    1.000
    C59      C        0.34600    0.53760    0.48090    1.000
    C60      C        0.76230    0.49060    0.37410    1.000
    C61      C        0.43370    0.67940    0.84900    1.000
    C62      C        0.35380    0.75180    0.84450    1.000
    C63      C        0.34580    0.68720    0.74400    1.000
    C64      C        0.30890    0.66800    0.67270    1.000
    C65      C        0.20300    0.82650    0.75060    1.000
    C66      C        0.03280    0.80270    0.74530    1.000
    C67      C        0.95980    0.78320    0.81160    1.000
    C68      C        0.79450    0.75560    0.80810    1.000
    C69      C        0.65350    0.80650    0.70130    1.000
    C70      C        0.57060    0.87740    0.68490    1.000
    C71      C        0.64000    0.89040    0.79390    1.000
    C72      C        0.66500    0.92210    0.86340    1.000
    C73      C        0.79760    0.45570    0.12070    1.000
    C74      C        0.71880    0.39770    0.06900    1.000
    C75      C        0.59960    0.34730    0.09230    1.000
    C76      C        0.52290    0.29520    0.04830    1.000
    C77      C        0.57050    0.29370    0.97890    1.000
    C78      C        0.75850    0.39400    0.99920    1.000
    C79      C        0.89290    0.44160    0.97160    1.000
    C80      C        0.88610    0.48850    0.91070    1.000
    C81      C        0.02370    0.52240    0.88550    1.000
    C82      C        0.15690    0.50880    0.92130    1.000
    C83      C        0.15400    0.46240    0.98090    1.000
    C84      C        0.73770    0.50940    0.87410    1.000
    C85      C        0.06630    0.32060    0.34900    1.000
    C86      C        0.14620    0.24820    0.34450    1.000
    C87      C        0.15420    0.31280    0.24400    1.000
    C88      C        0.19110    0.33200    0.17270    1.000
    C89      C        0.29700    0.17350    0.25060    1.000
    C90      C        0.46720    0.19730    0.24530    1.000
    C91      C        0.54020    0.21680    0.31160    1.000
    C92      C        0.70550    0.24440    0.30810    1.000
    C93      C        0.84650    0.19350    0.20130    1.000
    C94      C        0.92940    0.12260    0.18490    1.000
    C95      C        0.86000    0.10960    0.29390    1.000
    C96      C        0.83500    0.07790    0.36340    1.000
    N1       N        0.56870    0.13890    0.71310    1.000
    N2       N        0.70270    0.25690    0.72090    1.000
    N3       N        0.43580    0.43020    0.75780    1.000
    N4       N        0.30260    0.31600    0.73160    1.000
    N5       N        0.52530    0.07100    0.99370    1.000
    N6       N        0.18730    0.15850    0.04520    1.000
    N7       N        0.93130    0.86110    0.21310    1.000
    N8       N        0.79730    0.74310    0.22090    1.000
    N9       N        0.06420    0.56980    0.25780    1.000
    N10      N        0.19740    0.68400    0.23160    1.000
    N11      N        0.97470    0.92900    0.49370    1.000
    N12      N        0.31270    0.84150    0.54520    1.000
    N13      N        0.43130    0.63890    0.78690    1.000
    N14      N        0.29730    0.75690    0.77910    1.000
    N15      N        0.56420    0.93020    0.74220    1.000
    N16      N        0.69740    0.81600    0.76840    1.000
    N17      N        0.47470    0.57100    0.50630    1.000
    N18      N        0.81270    0.65850    0.45480    1.000
    N19      N        0.06870    0.36110    0.28690    1.000
    N20      N        0.20270    0.24310    0.27910    1.000
    N21      N        0.93580    0.06980    0.24220    1.000
    N22      N        0.80260    0.18400    0.26840    1.000
    N23      N        0.02530    0.42900    0.00630    1.000
    N24      N        0.68730    0.34150    0.95480    1.000
    O1       O        0.29270    0.96590    0.88580    1.000
    O2       O        0.35540    0.08310    0.82880    1.000
    O3       O        0.11710    0.98330    0.09450    1.000
    O4       O        0.24970    0.97990    0.19110    1.000
    O5       O        0.20730    0.03410    0.38580    1.000
    O6       O        0.14460    0.91690    0.32880    1.000
    O7       O        0.38290    0.01670    0.59450    1.000
    O8       O        0.25030    0.02010    0.69110    1.000
    O9       O        0.70730    0.46590    0.61420    1.000
    O10      O        0.64460    0.58310    0.67120    1.000
    O11      O        0.88290    0.48330    0.40550    1.000
    O12      O        0.75030    0.47990    0.30890    1.000
    O13      O        0.79270    0.53410    0.11420    1.000
    O14      O        0.85540    0.41690    0.17120    1.000
    O15      O        0.61710    0.51670    0.90550    1.000
    O16      O        0.74970    0.52010    0.80890    1.000
