# CIF file generated by openbabel 3.1.0, see https://openbabel.org
data_I
_chemical_name_common 'FIFPAM01_clean'
_cell_length_a 8.1405
_cell_length_b 10.5032
_cell_length_c 11.3336
_cell_angle_alpha 62.3956
_cell_angle_beta 84.1732
_cell_angle_gamma 77.344
_space_group_name_H-M_alt 'P 1'
_space_group_name_Hall 'P 1'
loop_
    _symmetry_equiv_pos_as_xyz
    x,y,z
loop_
    _atom_site_label
    _atom_site_type_symbol
    _atom_site_fract_x
    _atom_site_fract_y
    _atom_site_fract_z
    _atom_site_occupancy
    Ni1      Ni       0.81820    0.94826    0.50648    1.000
    Ni2      Ni       0.31820    0.45474    0.49352    1.000
    H1       H        0.73600    0.74600    0.37600    1.000
    H2       H        0.09800    0.75700    0.44000    1.000
    H3       H        0.76200    0.73900    0.19000    1.000
    H4       H        0.72700    0.79800    0.96600    1.000
    H5       H        0.91500    0.15100    0.21600    1.000
    H6       H        0.73900    0.81000    0.78000    1.000
    H7       H        0.86800    0.17000    0.99800    1.000
    H8       H        0.86200    0.12800    0.62200    1.000
    H9       H        0.90500    0.10300    0.81800    1.000
    H10      H        0.23600    0.12200    0.62400    1.000
    H11      H        0.59800    0.19700    0.56000    1.000
    H12      H        0.26200    0.92900    0.81000    1.000
    H13      H        0.22700    0.76400    0.03400    1.000
    H14      H        0.41500    0.36700    0.78400    1.000
    H15      H        0.23900    0.59000    0.22000    1.000
    H16      H        0.36800    0.16800    0.00200    1.000
    H17      H        0.36200    0.75000    0.37800    1.000
    H18      H        0.40500    0.92100    0.18200    1.000
    C1       C        0.81620    0.95110    0.94060    1.000
    C2       C        0.82110    0.94690    0.07360    1.000
    C3       C        0.78970    0.83540    0.30940    1.000
    C4       C        0.78620    0.82590    0.19000    1.000
    C5       C        0.86120    0.06480    0.08480    1.000
    C6       C        0.76400    0.84550    0.92500    1.000
    C7       C        0.86150    0.05670    0.20940    1.000
    C8       C        0.07980    0.68990    0.54180    1.000
    C9       C        0.86400    0.05980    0.82380    1.000
    C10      C        0.75900    0.84750    0.80400    1.000
    C11      C        0.86230    0.06010    0.70500    1.000
    C12      C        0.31620    0.89170    0.05940    1.000
    C13      C        0.32110    0.02050    0.92640    1.000
    C14      C        0.28970    0.14480    0.69060    1.000
    C15      C        0.28620    0.01590    0.81000    1.000
    C16      C        0.36120    0.14960    0.91520    1.000
    C17      C        0.26400    0.77050    0.07500    1.000
    C18      C        0.36150    0.26610    0.79060    1.000
    C19      C        0.57980    0.23170    0.45820    1.000
    C20      C        0.36400    0.88360    0.17620    1.000
    C21      C        0.25900    0.65150    0.19600    1.000
    C22      C        0.36230    0.76510    0.29500    1.000
    N1       N        0.82460    0.94550    0.32380    1.000
    N2       N        0.81190    0.95370    0.69220    1.000
    N3       N        0.32460    0.26930    0.67620    1.000
    N4       N        0.31190    0.64590    0.30780    1.000
    O1       O        0.96360    0.73800    0.60060    1.000
    O2       O        0.16750    0.56430    0.59360    1.000
    O3       O        0.46360    0.33860    0.39940    1.000
    O4       O        0.66750    0.15790    0.40640    1.000
