# CIF file generated by openbabel 3.1.0, see https://openbabel.org
data_I
_chemical_name_common 'image0'
_cell_length_a 32.8029
_cell_length_b 35.0128
_cell_length_c 11.4791
_cell_angle_alpha 90
_cell_angle_beta 110.198
_cell_angle_gamma 90
_space_group_name_H-M_alt 'P 1'
_space_group_name_Hall 'P 1'
loop_
    _symmetry_equiv_pos_as_xyz
    x,y,z
loop_
    _atom_site_label
    _atom_site_type_symbol
    _atom_site_fract_x
    _atom_site_fract_y
    _atom_site_fract_z
    _atom_site_occupancy
    Zn1      Zn       0.96331    0.73757    0.70667    1.000
    O1       O        0.77501    0.54222    0.86630    1.000
    O2       O        0.73800    0.54155    0.66570    1.000
    O3       O        0.76408    0.93174    0.81320    1.000
    O4       O        0.76743    0.95823    0.64240    1.000
    O5       O        0.18803    0.54084    0.84770    1.000
    O6       O        0.17544    0.54210    0.64650    1.000
    O7       O        0.14574    0.95784    0.66770    1.000
    O8       O        0.19120    0.93160    0.83650    1.000
    O9       O        0.98540    0.74424    0.89750    1.000
    N1       N        0.96085    0.67895    0.69230    1.000
    N2       N        0.96009    0.79577    0.67300    1.000
    N3       N        0.02179    0.73654    0.67610    1.000
    N4       N        0.89704    0.73776    0.67180    1.000
    C1       C        0.76882    0.55407    0.75630    1.000
    C2       C        0.77626    0.93064    0.71810    1.000
    C3       C        0.79836    0.58374    0.73580    1.000
    C4       C        0.80125    0.89750    0.69950    1.000
    C5       C        0.87147    0.70654    0.66740    1.000
    C6       C        0.16662    0.55340    0.73910    1.000
    C7       C        0.12785    0.89620    0.72400    1.000
    C8       C        0.99514    0.65531    0.70020    1.000
    C9       C        0.15709    0.93018    0.74390    1.000
    C10      C        0.13174    0.58193    0.72300    1.000
    C11      C        0.92767    0.65607    0.70150    1.000
    C12      C        0.85493    0.63929    0.70250    1.000
    C13      C        0.04602    0.76760    0.66990    1.000
    C14      C        0.99570    0.81854    0.68840    1.000
    C15      C        0.06748    0.63709    0.69790    1.000
    C16      C        0.81278    0.86794    0.78640    1.000
    H1       H        0.80260    0.86810    0.85440    1.000
    C17      C        0.92772    0.81915    0.67940    1.000
    C18      C        0.06937    0.83565    0.69560    1.000
    C19      C        0.85440    0.83755    0.67410    1.000
    C20      C        0.88611    0.66853    0.68830    1.000
    C21      C        0.94266    0.61692    0.71860    1.000
    H2       H        0.92650    0.59550    0.72900    1.000
    C22      C        0.04530    0.70485    0.66860    1.000
    C23      C        0.03418    0.66718    0.68720    1.000
    C24      C        0.94352    0.85784    0.70240    1.000
    H3       H        0.92740    0.87960    0.71070    1.000
    C25      C        0.87105    0.76920    0.65860    1.000
    C26      C        0.08441    0.71695    0.64840    1.000
    H4       H        0.10580    0.70070    0.63640    1.000
    C27      C        0.98530    0.85735    0.70980    1.000
    H5       H        0.00440    0.87860    0.72600    1.000
    C28      C        0.88547    0.80752    0.66860    1.000
    C29      C        0.08507    0.75485    0.64980    1.000
    H6       H        0.10710    0.77070    0.63960    1.000
    C30      C        0.79624    0.59446    0.61890    1.000
    H7       H        0.77520    0.58310    0.54850    1.000
    C31      C        0.83906    0.83833    0.77400    1.000
    H8       H        0.84680    0.81840    0.83380    1.000
    C32      C        0.98333    0.61626    0.71720    1.000
    H9       H        0.00110    0.59430    0.72570    1.000
    C33      C        0.09147    0.89326    0.61950    1.000
    H10      H        0.08620    0.91200    0.55600    1.000
    C34      C        0.03571    0.80579    0.68400    1.000
    C35      C        0.82700    0.75704    0.63890    1.000
    H11      H        0.80240    0.77310    0.62460    1.000
    C36      C        0.06252    0.86373    0.60510    1.000
    H12      H        0.03750    0.86250    0.53220    1.000
    C37      C        0.81506    0.89648    0.59780    1.000
    H13      H        0.80670    0.91610    0.53700    1.000
    C38      C        0.82875    0.60181    0.83660    1.000
    H14      H        0.83070    0.59510    0.91860    1.000
    C39      C        0.82753    0.71874    0.64480    1.000
    H15      H        0.80330    0.70260    0.63580    1.000
    C40      C        0.10766    0.83732    0.79740    1.000
    H16      H        0.11410    0.81770    0.85820    1.000
    C41      C        0.85579    0.62913    0.81860    1.000
    H17      H        0.87580    0.64150    0.88890    1.000
    C42      C        0.82425    0.62153    0.60250    1.000
    H18      H        0.82250    0.62820    0.52070    1.000
    C43      C        0.13641    0.86724    0.81110    1.000
    H19      H        0.16240    0.86790    0.88130    1.000
    C44      C        0.84126    0.86652    0.58570    1.000
    H20      H        0.85040    0.86580    0.51560    1.000
    C45      C        0.11124    0.59903    0.61160    1.000
    H21      H        0.11870    0.59210    0.54150    1.000
    C46      C        0.07953    0.62650    0.59940    1.000
    H22      H        0.06580    0.63820    0.52100    1.000
    C47      C        0.08730    0.61835    0.81030    1.000
    H23      H        0.07880    0.62430    0.87930    1.000
    C48      C        0.11923    0.59125    0.82300    1.000
    H24      H        0.13260    0.57900    0.90070    1.000
    Na1      Na       0.74923    0.92266    0.98946    1.000
    Zn2      Zn       0.46331    0.23757    0.70667    1.000
    O10      O        0.27501    0.04222    0.86630    1.000
    O11      O        0.23800    0.04155    0.66570    1.000
    O12      O        0.26408    0.43174    0.81320    1.000
    O13      O        0.26743    0.45823    0.64240    1.000
    O14      O        0.68803    0.04084    0.84770    1.000
    O15      O        0.67544    0.04210    0.64650    1.000
    O16      O        0.64574    0.45784    0.66770    1.000
    O17      O        0.69120    0.43160    0.83650    1.000
    O18      O        0.48540    0.24424    0.89750    1.000
    N5       N        0.46085    0.17895    0.69230    1.000
    N6       N        0.46009    0.29577    0.67300    1.000
    N7       N        0.52179    0.23654    0.67610    1.000
    N8       N        0.39704    0.23776    0.67180    1.000
    C49      C        0.26882    0.05407    0.75630    1.000
    C50      C        0.27626    0.43064    0.71810    1.000
    C51      C        0.29836    0.08374    0.73580    1.000
    C52      C        0.30125    0.39750    0.69950    1.000
    C53      C        0.37147    0.20654    0.66740    1.000
    C54      C        0.66662    0.05340    0.73910    1.000
    C55      C        0.62785    0.39620    0.72400    1.000
    C56      C        0.49514    0.15531    0.70020    1.000
    C57      C        0.65709    0.43018    0.74390    1.000
    C58      C        0.63174    0.08193    0.72300    1.000
    C59      C        0.42767    0.15607    0.70150    1.000
    C60      C        0.35493    0.13929    0.70250    1.000
    C61      C        0.54602    0.26760    0.66990    1.000
    C62      C        0.49570    0.31854    0.68840    1.000
    C63      C        0.56748    0.13709    0.69790    1.000
    C64      C        0.31278    0.36794    0.78640    1.000
    H25      H        0.30260    0.36810    0.85440    1.000
    C65      C        0.42772    0.31915    0.67940    1.000
    C66      C        0.56937    0.33565    0.69560    1.000
    C67      C        0.35440    0.33755    0.67410    1.000
    C68      C        0.38611    0.16853    0.68830    1.000
    C69      C        0.44266    0.11692    0.71860    1.000
    H26      H        0.42650    0.09550    0.72900    1.000
    C70      C        0.54530    0.20485    0.66860    1.000
    C71      C        0.53418    0.16718    0.68720    1.000
    C72      C        0.44352    0.35784    0.70240    1.000
    H27      H        0.42740    0.37960    0.71070    1.000
    C73      C        0.37105    0.26920    0.65860    1.000
    C74      C        0.58441    0.21695    0.64840    1.000
    H28      H        0.60580    0.20070    0.63640    1.000
    C75      C        0.48530    0.35735    0.70980    1.000
    H29      H        0.50440    0.37860    0.72600    1.000
    C76      C        0.38547    0.30752    0.66860    1.000
    C77      C        0.58507    0.25485    0.64980    1.000
    H30      H        0.60710    0.27070    0.63960    1.000
    C78      C        0.29624    0.09446    0.61890    1.000
    H31      H        0.27520    0.08310    0.54850    1.000
    C79      C        0.33906    0.33833    0.77400    1.000
    H32      H        0.34680    0.31840    0.83380    1.000
    C80      C        0.48333    0.11626    0.71720    1.000
    H33      H        0.50110    0.09430    0.72570    1.000
    C81      C        0.59147    0.39326    0.61950    1.000
    H34      H        0.58620    0.41200    0.55600    1.000
    C82      C        0.53571    0.30579    0.68400    1.000
    C83      C        0.32700    0.25704    0.63890    1.000
    H35      H        0.30240    0.27310    0.62460    1.000
    C84      C        0.56252    0.36373    0.60510    1.000
    H36      H        0.53750    0.36250    0.53220    1.000
    C85      C        0.31506    0.39648    0.59780    1.000
    H37      H        0.30670    0.41610    0.53700    1.000
    C86      C        0.32875    0.10181    0.83660    1.000
    H38      H        0.33070    0.09510    0.91860    1.000
    C87      C        0.32753    0.21874    0.64480    1.000
    H39      H        0.30330    0.20260    0.63580    1.000
    C88      C        0.60766    0.33732    0.79740    1.000
    H40      H        0.61410    0.31770    0.85820    1.000
    C89      C        0.35579    0.12913    0.81860    1.000
    H41      H        0.37580    0.14150    0.88890    1.000
    C90      C        0.32425    0.12153    0.60250    1.000
    H42      H        0.32250    0.12820    0.52070    1.000
    C91      C        0.63641    0.36724    0.81110    1.000
    H43      H        0.66240    0.36790    0.88130    1.000
    C92      C        0.34126    0.36652    0.58570    1.000
    H44      H        0.35040    0.36580    0.51560    1.000
    C93      C        0.61124    0.09903    0.61160    1.000
    H45      H        0.61870    0.09210    0.54150    1.000
    C94      C        0.57953    0.12650    0.59940    1.000
    H46      H        0.56580    0.13820    0.52100    1.000
    C95      C        0.58730    0.11835    0.81030    1.000
    H47      H        0.57880    0.12430    0.87930    1.000
    C96      C        0.61923    0.09125    0.82300    1.000
    H48      H        0.63260    0.07900    0.90070    1.000
    Na2      Na       0.24923    0.42266    0.98946    1.000
    Zn3      Zn       0.03669    0.73757    0.29333    1.000
    O19      O        0.22499    0.54222    0.13370    1.000
    O20      O        0.26200    0.54155    0.33430    1.000
    O21      O        0.23592    0.93174    0.18680    1.000
    O22      O        0.23257    0.95823    0.35760    1.000
    O23      O        0.81197    0.54084    0.15230    1.000
    O24      O        0.82456    0.54210    0.35350    1.000
    O25      O        0.85426    0.95784    0.33230    1.000
    O26      O        0.80880    0.93160    0.16350    1.000
    O27      O        0.01460    0.74424    0.10250    1.000
    N9       N        0.03915    0.67895    0.30770    1.000
    N10      N        0.03991    0.79577    0.32700    1.000
    N11      N        0.97821    0.73654    0.32390    1.000
    N12      N        0.10296    0.73776    0.32820    1.000
    C97      C        0.23118    0.55407    0.24370    1.000
    C98      C        0.22374    0.93064    0.28190    1.000
    C99      C        0.20164    0.58374    0.26420    1.000
    C100     C        0.19875    0.89750    0.30050    1.000
    C101     C        0.12853    0.70654    0.33260    1.000
    C102     C        0.83338    0.55340    0.26090    1.000
    C103     C        0.87215    0.89620    0.27600    1.000
    C104     C        0.00486    0.65531    0.29980    1.000
    C105     C        0.84291    0.93018    0.25610    1.000
    C106     C        0.86826    0.58193    0.27700    1.000
    C107     C        0.07233    0.65607    0.29850    1.000
    C108     C        0.14507    0.63929    0.29750    1.000
    C109     C        0.95398    0.76760    0.33010    1.000
    C110     C        0.00430    0.81854    0.31160    1.000
    C111     C        0.93252    0.63709    0.30210    1.000
    C112     C        0.18722    0.86794    0.21360    1.000
    H49      H        0.19740    0.86810    0.14560    1.000
    C113     C        0.07228    0.81915    0.32060    1.000
    C114     C        0.93063    0.83565    0.30440    1.000
    C115     C        0.14560    0.83755    0.32590    1.000
    C116     C        0.11389    0.66853    0.31170    1.000
    C117     C        0.05734    0.61692    0.28140    1.000
    H50      H        0.07350    0.59550    0.27100    1.000
    C118     C        0.95470    0.70485    0.33140    1.000
    C119     C        0.96582    0.66718    0.31280    1.000
    C120     C        0.05648    0.85784    0.29760    1.000
    H51      H        0.07260    0.87960    0.28930    1.000
    C121     C        0.12895    0.76920    0.34140    1.000
    C122     C        0.91559    0.71695    0.35160    1.000
    H52      H        0.89420    0.70070    0.36360    1.000
    C123     C        0.01470    0.85735    0.29020    1.000
    H53      H        0.99560    0.87860    0.27400    1.000
    C124     C        0.11453    0.80752    0.33140    1.000
    C125     C        0.91493    0.75485    0.35020    1.000
    H54      H        0.89290    0.77070    0.36040    1.000
    C126     C        0.20376    0.59446    0.38110    1.000
    H55      H        0.22480    0.58310    0.45150    1.000
    C127     C        0.16094    0.83833    0.22600    1.000
    H56      H        0.15320    0.81840    0.16620    1.000
    C128     C        0.01667    0.61626    0.28280    1.000
    H57      H        0.99890    0.59430    0.27430    1.000
    C129     C        0.90853    0.89326    0.38050    1.000
    H58      H        0.91380    0.91200    0.44400    1.000
    C130     C        0.96429    0.80579    0.31600    1.000
    C131     C        0.17300    0.75704    0.36110    1.000
    H59      H        0.19760    0.77310    0.37540    1.000
    C132     C        0.93748    0.86373    0.39490    1.000
    H60      H        0.96250    0.86250    0.46780    1.000
    C133     C        0.18494    0.89648    0.40220    1.000
    H61      H        0.19330    0.91610    0.46300    1.000
    C134     C        0.17125    0.60181    0.16340    1.000
    H62      H        0.16930    0.59510    0.08140    1.000
    C135     C        0.17247    0.71874    0.35520    1.000
    H63      H        0.19670    0.70260    0.36420    1.000
    C136     C        0.89234    0.83732    0.20260    1.000
    H64      H        0.88590    0.81770    0.14180    1.000
    C137     C        0.14421    0.62913    0.18140    1.000
    H65      H        0.12420    0.64150    0.11110    1.000
    C138     C        0.17575    0.62153    0.39750    1.000
    H66      H        0.17750    0.62820    0.47930    1.000
    C139     C        0.86359    0.86724    0.18890    1.000
    H67      H        0.83760    0.86790    0.11870    1.000
    C140     C        0.15874    0.86652    0.41430    1.000
    H68      H        0.14960    0.86580    0.48440    1.000
    C141     C        0.88876    0.59903    0.38840    1.000
    H69      H        0.88130    0.59210    0.45850    1.000
    C142     C        0.92047    0.62650    0.40060    1.000
    H70      H        0.93420    0.63820    0.47900    1.000
    C143     C        0.91270    0.61835    0.18970    1.000
    H71      H        0.92120    0.62430    0.12070    1.000
    C144     C        0.88077    0.59125    0.17700    1.000
    H72      H        0.86740    0.57900    0.09930    1.000
    Na3      Na       0.25077    0.92266    0.01054    1.000
    Zn4      Zn       0.53669    0.23757    0.29333    1.000
    O28      O        0.72499    0.04222    0.13370    1.000
    O29      O        0.76200    0.04155    0.33430    1.000
    O30      O        0.73592    0.43174    0.18680    1.000
    O31      O        0.73257    0.45823    0.35760    1.000
    O32      O        0.31197    0.04084    0.15230    1.000
    O33      O        0.32456    0.04210    0.35350    1.000
    O34      O        0.35426    0.45784    0.33230    1.000
    O35      O        0.30880    0.43160    0.16350    1.000
    O36      O        0.51460    0.24424    0.10250    1.000
    N13      N        0.53915    0.17895    0.30770    1.000
    N14      N        0.53991    0.29577    0.32700    1.000
    N15      N        0.47821    0.23654    0.32390    1.000
    N16      N        0.60296    0.23776    0.32820    1.000
    C145     C        0.73118    0.05407    0.24370    1.000
    C146     C        0.72374    0.43064    0.28190    1.000
    C147     C        0.70164    0.08374    0.26420    1.000
    C148     C        0.69875    0.39750    0.30050    1.000
    C149     C        0.62853    0.20654    0.33260    1.000
    C150     C        0.33338    0.05340    0.26090    1.000
    C151     C        0.37215    0.39620    0.27600    1.000
    C152     C        0.50486    0.15531    0.29980    1.000
    C153     C        0.34291    0.43018    0.25610    1.000
    C154     C        0.36826    0.08193    0.27700    1.000
    C155     C        0.57233    0.15607    0.29850    1.000
    C156     C        0.64507    0.13929    0.29750    1.000
    C157     C        0.45398    0.26760    0.33010    1.000
    C158     C        0.50430    0.31854    0.31160    1.000
    C159     C        0.43252    0.13709    0.30210    1.000
    C160     C        0.68722    0.36794    0.21360    1.000
    H73      H        0.69740    0.36810    0.14560    1.000
    C161     C        0.57228    0.31915    0.32060    1.000
    C162     C        0.43063    0.33565    0.30440    1.000
    C163     C        0.64560    0.33755    0.32590    1.000
    C164     C        0.61389    0.16853    0.31170    1.000
    C165     C        0.55734    0.11692    0.28140    1.000
    H74      H        0.57350    0.09550    0.27100    1.000
    C166     C        0.45470    0.20485    0.33140    1.000
    C167     C        0.46582    0.16718    0.31280    1.000
    C168     C        0.55648    0.35784    0.29760    1.000
    H75      H        0.57260    0.37960    0.28930    1.000
    C169     C        0.62895    0.26920    0.34140    1.000
    C170     C        0.41559    0.21695    0.35160    1.000
    H76      H        0.39420    0.20070    0.36360    1.000
    C171     C        0.51470    0.35735    0.29020    1.000
    H77      H        0.49560    0.37860    0.27400    1.000
    C172     C        0.61453    0.30752    0.33140    1.000
    C173     C        0.41493    0.25485    0.35020    1.000
    H78      H        0.39290    0.27070    0.36040    1.000
    C174     C        0.70376    0.09446    0.38110    1.000
    H79      H        0.72480    0.08310    0.45150    1.000
    C175     C        0.66094    0.33833    0.22600    1.000
    H80      H        0.65320    0.31840    0.16620    1.000
    C176     C        0.51667    0.11626    0.28280    1.000
    H81      H        0.49890    0.09430    0.27430    1.000
    C177     C        0.40853    0.39326    0.38050    1.000
    H82      H        0.41380    0.41200    0.44400    1.000
    C178     C        0.46429    0.30579    0.31600    1.000
    C179     C        0.67300    0.25704    0.36110    1.000
    H83      H        0.69760    0.27310    0.37540    1.000
    C180     C        0.43748    0.36373    0.39490    1.000
    H84      H        0.46250    0.36250    0.46780    1.000
    C181     C        0.68494    0.39648    0.40220    1.000
    H85      H        0.69330    0.41610    0.46300    1.000
    C182     C        0.67125    0.10181    0.16340    1.000
    H86      H        0.66930    0.09510    0.08140    1.000
    C183     C        0.67247    0.21874    0.35520    1.000
    H87      H        0.69670    0.20260    0.36420    1.000
    C184     C        0.39234    0.33732    0.20260    1.000
    H88      H        0.38590    0.31770    0.14180    1.000
    C185     C        0.64421    0.12913    0.18140    1.000
    H89      H        0.62420    0.14150    0.11110    1.000
    C186     C        0.67575    0.12153    0.39750    1.000
    H90      H        0.67750    0.12820    0.47930    1.000
    C187     C        0.36359    0.36724    0.18890    1.000
    H91      H        0.33760    0.36790    0.11870    1.000
    C188     C        0.65874    0.36652    0.41430    1.000
    H92      H        0.64960    0.36580    0.48440    1.000
    C189     C        0.38876    0.09903    0.38840    1.000
    H93      H        0.38130    0.09210    0.45850    1.000
    C190     C        0.42047    0.12650    0.40060    1.000
    H94      H        0.43420    0.13820    0.47900    1.000
    C191     C        0.41270    0.11835    0.18970    1.000
    H95      H        0.42120    0.12430    0.12070    1.000
    C192     C        0.38077    0.09125    0.17700    1.000
    H96      H        0.36740    0.07900    0.09930    1.000
    Na4      Na       0.75077    0.42266    0.01054    1.000
    Zn5      Zn       0.03669    0.26243    0.29333    1.000
    O37      O        0.22499    0.45778    0.13370    1.000
    O38      O        0.26200    0.45845    0.33430    1.000
    O39      O        0.23592    0.06826    0.18680    1.000
    O40      O        0.23257    0.04177    0.35760    1.000
    O41      O        0.81197    0.45916    0.15230    1.000
    O42      O        0.82456    0.45790    0.35350    1.000
    O43      O        0.85426    0.04216    0.33230    1.000
    O44      O        0.80880    0.06840    0.16350    1.000
    O45      O        0.01460    0.25576    0.10250    1.000
    N17      N        0.03915    0.32105    0.30770    1.000
    N18      N        0.03991    0.20423    0.32700    1.000
    N19      N        0.97821    0.26346    0.32390    1.000
    N20      N        0.10296    0.26224    0.32820    1.000
    C193     C        0.23118    0.44593    0.24370    1.000
    C194     C        0.22374    0.06936    0.28190    1.000
    C195     C        0.20164    0.41626    0.26420    1.000
    C196     C        0.19875    0.10250    0.30050    1.000
    C197     C        0.12853    0.29346    0.33260    1.000
    C198     C        0.83338    0.44660    0.26090    1.000
    C199     C        0.87215    0.10380    0.27600    1.000
    C200     C        0.00486    0.34469    0.29980    1.000
    C201     C        0.84291    0.06982    0.25610    1.000
    C202     C        0.86826    0.41807    0.27700    1.000
    C203     C        0.07233    0.34393    0.29850    1.000
    C204     C        0.14507    0.36071    0.29750    1.000
    C205     C        0.95398    0.23240    0.33010    1.000
    C206     C        0.00430    0.18146    0.31160    1.000
    C207     C        0.93252    0.36291    0.30210    1.000
    C208     C        0.18722    0.13206    0.21360    1.000
    H97      H        0.19740    0.13190    0.14560    1.000
    C209     C        0.07228    0.18085    0.32060    1.000
    C210     C        0.93063    0.16435    0.30440    1.000
    C211     C        0.14560    0.16245    0.32590    1.000
    C212     C        0.11389    0.33147    0.31170    1.000
    C213     C        0.05734    0.38308    0.28140    1.000
    H98      H        0.07350    0.40450    0.27100    1.000
    C214     C        0.95470    0.29515    0.33140    1.000
    C215     C        0.96582    0.33282    0.31280    1.000
    C216     C        0.05648    0.14216    0.29760    1.000
    H99      H        0.07260    0.12040    0.28930    1.000
    C217     C        0.12895    0.23080    0.34140    1.000
    C218     C        0.91559    0.28305    0.35160    1.000
    H100     H        0.89420    0.29930    0.36360    1.000
    C219     C        0.01470    0.14265    0.29020    1.000
    H101     H        0.99560    0.12140    0.27400    1.000
    C220     C        0.11453    0.19248    0.33140    1.000
    C221     C        0.91493    0.24515    0.35020    1.000
    H102     H        0.89290    0.22930    0.36040    1.000
    C222     C        0.20376    0.40554    0.38110    1.000
    H103     H        0.22480    0.41690    0.45150    1.000
    C223     C        0.16094    0.16167    0.22600    1.000
    H104     H        0.15320    0.18160    0.16620    1.000
    C224     C        0.01667    0.38374    0.28280    1.000
    H105     H        0.99890    0.40570    0.27430    1.000
    C225     C        0.90853    0.10674    0.38050    1.000
    H106     H        0.91380    0.08800    0.44400    1.000
    C226     C        0.96429    0.19421    0.31600    1.000
    C227     C        0.17300    0.24296    0.36110    1.000
    H107     H        0.19760    0.22690    0.37540    1.000
    C228     C        0.93748    0.13627    0.39490    1.000
    H108     H        0.96250    0.13750    0.46780    1.000
    C229     C        0.18494    0.10352    0.40220    1.000
    H109     H        0.19330    0.08390    0.46300    1.000
    C230     C        0.17125    0.39819    0.16340    1.000
    H110     H        0.16930    0.40490    0.08140    1.000
    C231     C        0.17247    0.28126    0.35520    1.000
    H111     H        0.19670    0.29740    0.36420    1.000
    C232     C        0.89234    0.16268    0.20260    1.000
    H112     H        0.88590    0.18230    0.14180    1.000
    C233     C        0.14421    0.37087    0.18140    1.000
    H113     H        0.12420    0.35850    0.11110    1.000
    C234     C        0.17575    0.37847    0.39750    1.000
    H114     H        0.17750    0.37180    0.47930    1.000
    C235     C        0.86359    0.13276    0.18890    1.000
    H115     H        0.83760    0.13210    0.11870    1.000
    C236     C        0.15874    0.13348    0.41430    1.000
    H116     H        0.14960    0.13420    0.48440    1.000
    C237     C        0.88876    0.40097    0.38840    1.000
    H117     H        0.88130    0.40790    0.45850    1.000
    C238     C        0.92047    0.37350    0.40060    1.000
    H118     H        0.93420    0.36180    0.47900    1.000
    C239     C        0.91270    0.38165    0.18970    1.000
    H119     H        0.92120    0.37570    0.12070    1.000
    C240     C        0.88077    0.40875    0.17700    1.000
    H120     H        0.86740    0.42100    0.09930    1.000
    Na5      Na       0.25077    0.07734    0.01054    1.000
    Zn6      Zn       0.53669    0.76243    0.29333    1.000
    O46      O        0.72499    0.95778    0.13370    1.000
    O47      O        0.76200    0.95845    0.33430    1.000
    O48      O        0.73592    0.56826    0.18680    1.000
    O49      O        0.73257    0.54177    0.35760    1.000
    O50      O        0.31197    0.95916    0.15230    1.000
    O51      O        0.32456    0.95790    0.35350    1.000
    O52      O        0.35426    0.54216    0.33230    1.000
    O53      O        0.30880    0.56840    0.16350    1.000
    O54      O        0.51460    0.75576    0.10250    1.000
    N21      N        0.53915    0.82105    0.30770    1.000
    N22      N        0.53991    0.70423    0.32700    1.000
    N23      N        0.47821    0.76346    0.32390    1.000
    N24      N        0.60296    0.76224    0.32820    1.000
    C241     C        0.73118    0.94593    0.24370    1.000
    C242     C        0.72374    0.56936    0.28190    1.000
    C243     C        0.70164    0.91626    0.26420    1.000
    C244     C        0.69875    0.60250    0.30050    1.000
    C245     C        0.62853    0.79346    0.33260    1.000
    C246     C        0.33338    0.94660    0.26090    1.000
    C247     C        0.37215    0.60380    0.27600    1.000
    C248     C        0.50486    0.84469    0.29980    1.000
    C249     C        0.34291    0.56982    0.25610    1.000
    C250     C        0.36826    0.91807    0.27700    1.000
    C251     C        0.57233    0.84393    0.29850    1.000
    C252     C        0.64507    0.86071    0.29750    1.000
    C253     C        0.45398    0.73240    0.33010    1.000
    C254     C        0.50430    0.68146    0.31160    1.000
    C255     C        0.43252    0.86291    0.30210    1.000
    C256     C        0.68722    0.63206    0.21360    1.000
    H121     H        0.69740    0.63190    0.14560    1.000
    C257     C        0.57228    0.68085    0.32060    1.000
    C258     C        0.43063    0.66435    0.30440    1.000
    C259     C        0.64560    0.66245    0.32590    1.000
    C260     C        0.61389    0.83147    0.31170    1.000
    C261     C        0.55734    0.88308    0.28140    1.000
    H122     H        0.57350    0.90450    0.27100    1.000
    C262     C        0.45470    0.79515    0.33140    1.000
    C263     C        0.46582    0.83282    0.31280    1.000
    C264     C        0.55648    0.64216    0.29760    1.000
    H123     H        0.57260    0.62040    0.28930    1.000
    C265     C        0.62895    0.73080    0.34140    1.000
    C266     C        0.41559    0.78305    0.35160    1.000
    H124     H        0.39420    0.79930    0.36360    1.000
    C267     C        0.51470    0.64265    0.29020    1.000
    H125     H        0.49560    0.62140    0.27400    1.000
    C268     C        0.61453    0.69248    0.33140    1.000
    C269     C        0.41493    0.74515    0.35020    1.000
    H126     H        0.39290    0.72930    0.36040    1.000
    C270     C        0.70376    0.90554    0.38110    1.000
    H127     H        0.72480    0.91690    0.45150    1.000
    C271     C        0.66094    0.66167    0.22600    1.000
    H128     H        0.65320    0.68160    0.16620    1.000
    C272     C        0.51667    0.88374    0.28280    1.000
    H129     H        0.49890    0.90570    0.27430    1.000
    C273     C        0.40853    0.60674    0.38050    1.000
    H130     H        0.41380    0.58800    0.44400    1.000
    C274     C        0.46429    0.69421    0.31600    1.000
    C275     C        0.67300    0.74296    0.36110    1.000
    H131     H        0.69760    0.72690    0.37540    1.000
    C276     C        0.43748    0.63627    0.39490    1.000
    H132     H        0.46250    0.63750    0.46780    1.000
    C277     C        0.68494    0.60352    0.40220    1.000
    H133     H        0.69330    0.58390    0.46300    1.000
    C278     C        0.67125    0.89819    0.16340    1.000
    H134     H        0.66930    0.90490    0.08140    1.000
    C279     C        0.67247    0.78126    0.35520    1.000
    H135     H        0.69670    0.79740    0.36420    1.000
    C280     C        0.39234    0.66268    0.20260    1.000
    H136     H        0.38590    0.68230    0.14180    1.000
    C281     C        0.64421    0.87087    0.18140    1.000
    H137     H        0.62420    0.85850    0.11110    1.000
    C282     C        0.67575    0.87847    0.39750    1.000
    H138     H        0.67750    0.87180    0.47930    1.000
    C283     C        0.36359    0.63276    0.18890    1.000
    H139     H        0.33760    0.63210    0.11870    1.000
    C284     C        0.65874    0.63348    0.41430    1.000
    H140     H        0.64960    0.63420    0.48440    1.000
    C285     C        0.38876    0.90097    0.38840    1.000
    H141     H        0.38130    0.90790    0.45850    1.000
    C286     C        0.42047    0.87350    0.40060    1.000
    H142     H        0.43420    0.86180    0.47900    1.000
    C287     C        0.41270    0.88165    0.18970    1.000
    H143     H        0.42120    0.87570    0.12070    1.000
    C288     C        0.38077    0.90875    0.17700    1.000
    H144     H        0.36740    0.92100    0.09930    1.000
    Na6      Na       0.75077    0.57734    0.01054    1.000
    Zn7      Zn       0.96331    0.26243    0.70667    1.000
    O55      O        0.77501    0.45778    0.86630    1.000
    O56      O        0.73800    0.45845    0.66570    1.000
    O57      O        0.76408    0.06826    0.81320    1.000
    O58      O        0.76743    0.04177    0.64240    1.000
    O59      O        0.18803    0.45916    0.84770    1.000
    O60      O        0.17544    0.45790    0.64650    1.000
    O61      O        0.14574    0.04216    0.66770    1.000
    O62      O        0.19120    0.06840    0.83650    1.000
    O63      O        0.98540    0.25576    0.89750    1.000
    N25      N        0.96085    0.32105    0.69230    1.000
    N26      N        0.96009    0.20423    0.67300    1.000
    N27      N        0.02179    0.26346    0.67610    1.000
    N28      N        0.89704    0.26224    0.67180    1.000
    C289     C        0.76882    0.44593    0.75630    1.000
    C290     C        0.77626    0.06936    0.71810    1.000
    C291     C        0.79836    0.41626    0.73580    1.000
    C292     C        0.80125    0.10250    0.69950    1.000
    C293     C        0.87147    0.29346    0.66740    1.000
    C294     C        0.16662    0.44660    0.73910    1.000
    C295     C        0.12785    0.10380    0.72400    1.000
    C296     C        0.99514    0.34469    0.70020    1.000
    C297     C        0.15709    0.06982    0.74390    1.000
    C298     C        0.13174    0.41807    0.72300    1.000
    C299     C        0.92767    0.34393    0.70150    1.000
    C300     C        0.85493    0.36071    0.70250    1.000
    C301     C        0.04602    0.23240    0.66990    1.000
    C302     C        0.99570    0.18146    0.68840    1.000
    C303     C        0.06748    0.36291    0.69790    1.000
    C304     C        0.81278    0.13206    0.78640    1.000
    H145     H        0.80260    0.13190    0.85440    1.000
    C305     C        0.92772    0.18085    0.67940    1.000
    C306     C        0.06937    0.16435    0.69560    1.000
    C307     C        0.85440    0.16245    0.67410    1.000
    C308     C        0.88611    0.33147    0.68830    1.000
    C309     C        0.94266    0.38308    0.71860    1.000
    H146     H        0.92650    0.40450    0.72900    1.000
    C310     C        0.04530    0.29515    0.66860    1.000
    C311     C        0.03418    0.33282    0.68720    1.000
    C312     C        0.94352    0.14216    0.70240    1.000
    H147     H        0.92740    0.12040    0.71070    1.000
    C313     C        0.87105    0.23080    0.65860    1.000
    C314     C        0.08441    0.28305    0.64840    1.000
    H148     H        0.10580    0.29930    0.63640    1.000
    C315     C        0.98530    0.14265    0.70980    1.000
    H149     H        0.00440    0.12140    0.72600    1.000
    C316     C        0.88547    0.19248    0.66860    1.000
    C317     C        0.08507    0.24515    0.64980    1.000
    H150     H        0.10710    0.22930    0.63960    1.000
    C318     C        0.79624    0.40554    0.61890    1.000
    H151     H        0.77520    0.41690    0.54850    1.000
    C319     C        0.83906    0.16167    0.77400    1.000
    H152     H        0.84680    0.18160    0.83380    1.000
    C320     C        0.98333    0.38374    0.71720    1.000
    H153     H        0.00110    0.40570    0.72570    1.000
    C321     C        0.09147    0.10674    0.61950    1.000
    H154     H        0.08620    0.08800    0.55600    1.000
    C322     C        0.03571    0.19421    0.68400    1.000
    C323     C        0.82700    0.24296    0.63890    1.000
    H155     H        0.80240    0.22690    0.62460    1.000
    C324     C        0.06252    0.13627    0.60510    1.000
    H156     H        0.03750    0.13750    0.53220    1.000
    C325     C        0.81506    0.10352    0.59780    1.000
    H157     H        0.80670    0.08390    0.53700    1.000
    C326     C        0.82875    0.39819    0.83660    1.000
    H158     H        0.83070    0.40490    0.91860    1.000
    C327     C        0.82753    0.28126    0.64480    1.000
    H159     H        0.80330    0.29740    0.63580    1.000
    C328     C        0.10766    0.16268    0.79740    1.000
    H160     H        0.11410    0.18230    0.85820    1.000
    C329     C        0.85579    0.37087    0.81860    1.000
    H161     H        0.87580    0.35850    0.88890    1.000
    C330     C        0.82425    0.37847    0.60250    1.000
    H162     H        0.82250    0.37180    0.52070    1.000
    C331     C        0.13641    0.13276    0.81110    1.000
    H163     H        0.16240    0.13210    0.88130    1.000
    C332     C        0.84126    0.13348    0.58570    1.000
    H164     H        0.85040    0.13420    0.51560    1.000
    C333     C        0.11124    0.40097    0.61160    1.000
    H165     H        0.11870    0.40790    0.54150    1.000
    C334     C        0.07953    0.37350    0.59940    1.000
    H166     H        0.06580    0.36180    0.52100    1.000
    C335     C        0.08730    0.38165    0.81030    1.000
    H167     H        0.07880    0.37570    0.87930    1.000
    C336     C        0.11923    0.40875    0.82300    1.000
    H168     H        0.13260    0.42100    0.90070    1.000
    Na7      Na       0.74923    0.07734    0.98946    1.000
    Zn8      Zn       0.46331    0.76243    0.70667    1.000
    O64      O        0.27501    0.95778    0.86630    1.000
    O65      O        0.23800    0.95845    0.66570    1.000
    O66      O        0.26408    0.56826    0.81320    1.000
    O67      O        0.26743    0.54177    0.64240    1.000
    O68      O        0.68803    0.95916    0.84770    1.000
    O69      O        0.67544    0.95790    0.64650    1.000
    O70      O        0.64574    0.54216    0.66770    1.000
    O71      O        0.69120    0.56840    0.83650    1.000
    O72      O        0.48540    0.75576    0.89750    1.000
    N29      N        0.46085    0.82105    0.69230    1.000
    N30      N        0.46009    0.70423    0.67300    1.000
    N31      N        0.52179    0.76346    0.67610    1.000
    N32      N        0.39704    0.76224    0.67180    1.000
    C337     C        0.26882    0.94593    0.75630    1.000
    C338     C        0.27626    0.56936    0.71810    1.000
    C339     C        0.29836    0.91626    0.73580    1.000
    C340     C        0.30125    0.60250    0.69950    1.000
    C341     C        0.37147    0.79346    0.66740    1.000
    C342     C        0.66662    0.94660    0.73910    1.000
    C343     C        0.62785    0.60380    0.72400    1.000
    C344     C        0.49514    0.84469    0.70020    1.000
    C345     C        0.65709    0.56982    0.74390    1.000
    C346     C        0.63174    0.91807    0.72300    1.000
    C347     C        0.42767    0.84393    0.70150    1.000
    C348     C        0.35493    0.86071    0.70250    1.000
    C349     C        0.54602    0.73240    0.66990    1.000
    C350     C        0.49570    0.68146    0.68840    1.000
    C351     C        0.56748    0.86291    0.69790    1.000
    C352     C        0.31278    0.63206    0.78640    1.000
    H169     H        0.30260    0.63190    0.85440    1.000
    C353     C        0.42772    0.68085    0.67940    1.000
    C354     C        0.56937    0.66435    0.69560    1.000
    C355     C        0.35440    0.66245    0.67410    1.000
    C356     C        0.38611    0.83147    0.68830    1.000
    C357     C        0.44266    0.88308    0.71860    1.000
    H170     H        0.42650    0.90450    0.72900    1.000
    C358     C        0.54530    0.79515    0.66860    1.000
    C359     C        0.53418    0.83282    0.68720    1.000
    C360     C        0.44352    0.64216    0.70240    1.000
    H171     H        0.42740    0.62040    0.71070    1.000
    C361     C        0.37105    0.73080    0.65860    1.000
    C362     C        0.58441    0.78305    0.64840    1.000
    H172     H        0.60580    0.79930    0.63640    1.000
    C363     C        0.48530    0.64265    0.70980    1.000
    H173     H        0.50440    0.62140    0.72600    1.000
    C364     C        0.38547    0.69248    0.66860    1.000
    C365     C        0.58507    0.74515    0.64980    1.000
    H174     H        0.60710    0.72930    0.63960    1.000
    C366     C        0.29624    0.90554    0.61890    1.000
    H175     H        0.27520    0.91690    0.54850    1.000
    C367     C        0.33906    0.66167    0.77400    1.000
    H176     H        0.34680    0.68160    0.83380    1.000
    C368     C        0.48333    0.88374    0.71720    1.000
    H177     H        0.50110    0.90570    0.72570    1.000
    C369     C        0.59147    0.60674    0.61950    1.000
    H178     H        0.58620    0.58800    0.55600    1.000
    C370     C        0.53571    0.69421    0.68400    1.000
    C371     C        0.32700    0.74296    0.63890    1.000
    H179     H        0.30240    0.72690    0.62460    1.000
    C372     C        0.56252    0.63627    0.60510    1.000
    H180     H        0.53750    0.63750    0.53220    1.000
    C373     C        0.31506    0.60352    0.59780    1.000
    H181     H        0.30670    0.58390    0.53700    1.000
    C374     C        0.32875    0.89819    0.83660    1.000
    H182     H        0.33070    0.90490    0.91860    1.000
    C375     C        0.32753    0.78126    0.64480    1.000
    H183     H        0.30330    0.79740    0.63580    1.000
    C376     C        0.60766    0.66268    0.79740    1.000
    H184     H        0.61410    0.68230    0.85820    1.000
    C377     C        0.35579    0.87087    0.81860    1.000
    H185     H        0.37580    0.85850    0.88890    1.000
    C378     C        0.32425    0.87847    0.60250    1.000
    H186     H        0.32250    0.87180    0.52070    1.000
    C379     C        0.63641    0.63276    0.81110    1.000
    H187     H        0.66240    0.63210    0.88130    1.000
    C380     C        0.34126    0.63348    0.58570    1.000
    H188     H        0.35040    0.63420    0.51560    1.000
    C381     C        0.61124    0.90097    0.61160    1.000
    H189     H        0.61870    0.90790    0.54150    1.000
    C382     C        0.57953    0.87350    0.59940    1.000
    H190     H        0.56580    0.86180    0.52100    1.000
    C383     C        0.58730    0.88165    0.81030    1.000
    H191     H        0.57880    0.87570    0.87930    1.000
    C384     C        0.61923    0.90875    0.82300    1.000
    H192     H        0.63260    0.92100    0.90070    1.000
    Na8      Na       0.24923    0.57734    0.98946    1.000
    Sm1      Sm       0.20538    0.00000    0.78887    1.000
    Sm2      Sm       0.26271    0.00000    0.23385    1.000
    O73      O        0.18264    0.00000    0.12040    1.000
    O74      O        0.15603    0.00000    0.91080    1.000
    O75      O        0.22663    0.00000    0.01080    1.000
    N33      N        0.18625    0.00000    0.01400    1.000
    Na9      Na       0.76810    0.00000    0.49452    1.000
    Sm3      Sm       0.70538    0.50000    0.78887    1.000
    Sm4      Sm       0.76271    0.50000    0.23385    1.000
    O76      O        0.68264    0.50000    0.12040    1.000
    O77      O        0.65603    0.50000    0.91080    1.000
    O78      O        0.72663    0.50000    0.01080    1.000
    N34      N        0.68625    0.50000    0.01400    1.000
    Na10     Na       0.26810    0.50000    0.49452    1.000
    Sm5      Sm       0.79462    0.00000    0.21113    1.000
    Sm6      Sm       0.73729    0.00000    0.76615    1.000
    O79      O        0.81736    0.00000    0.87960    1.000
    O80      O        0.84397    0.00000    0.08920    1.000
    O81      O        0.77337    0.00000    0.98920    1.000
    N35      N        0.81375    0.00000    0.98600    1.000
    Na11     Na       0.23190    0.00000    0.50548    1.000
    Sm7      Sm       0.29462    0.50000    0.21113    1.000
    Sm8      Sm       0.23729    0.50000    0.76615    1.000
    O82      O        0.31736    0.50000    0.87960    1.000
    O83      O        0.34397    0.50000    0.08920    1.000
    O84      O        0.27337    0.50000    0.98920    1.000
    N36      N        0.31375    0.50000    0.98600    1.000
    Na12     Na       0.73190    0.50000    0.50548    1.000
    C385     C        0.00000    0.73560    0.00000    1.000
    C386     C        0.50000    0.23560    0.00000    1.000
    C387     C        0.00000    0.26440    0.00000    1.000
    C388     C        0.50000    0.76440    0.00000    1.000
    Na13     Na       0.82428    0.50000    0.00371    1.000
    Na14     Na       0.32428    0.00000    0.00371    1.000
    Na15     Na       0.17572    0.50000    0.99629    1.000
    Na16     Na       0.67572    0.00000    0.99629    1.000
