# CIF file generated by openbabel 3.1.0, see https://openbabel.org
data_I
_chemical_name_common 'image0'
_cell_length_a 9.7205
_cell_length_b 9.7468
_cell_length_c 10.8926
_cell_angle_alpha 83.989
_cell_angle_beta 75.467
_cell_angle_gamma 78.545
_space_group_name_H-M_alt 'P 1'
_space_group_name_Hall 'P 1'
loop_
    _symmetry_equiv_pos_as_xyz
    x,y,z
loop_
    _atom_site_label
    _atom_site_type_symbol
    _atom_site_fract_x
    _atom_site_fract_y
    _atom_site_fract_z
    _atom_site_occupancy
    Mn1      Mn       0.36465    0.25534    0.52307    1.000
    Mn2      Mn       0.24086    0.55013    0.28165    1.000
    P1       P        0.47556    0.97749    0.69689    1.000
    H1       H        0.59300    0.04210    0.66860    1.000
    O1       O        0.41740    0.97630    0.83980    1.000
    O2       O        0.36790    0.06080    0.62540    1.000
    O3       O        0.52760    0.82830    0.65390    1.000
    O4       O        0.70210    0.04610    0.87820    1.000
    O5       O        0.80040    0.22210    0.76970    1.000
    O6       O        0.45710    0.23230    0.96790    1.000
    O7       O        0.56540    0.40390    0.85800    1.000
    O8       O        0.02990    0.55400    0.24170    1.000
    O9       O        0.79540    0.63860    0.31110    1.000
    O10      O        0.08020    0.62590    0.45530    1.000
    O11      O        0.84550    0.70890    0.52470    1.000
    O12      O        0.37550    0.47240    0.41860    1.000
    O13      O        0.46430    0.66510    0.42370    1.000
    C1       C        0.69980    0.17310    0.84320    1.000
    C2       C        0.56080    0.27920    0.89370    1.000
    C3       C        0.92350    0.61070    0.32190    1.000
    C4       C        0.95280    0.65110    0.44520    1.000
    C5       C        0.45360    0.54110    0.45470    1.000
    Mn3      Mn       0.63535    0.74466    0.47693    1.000
    Mn4      Mn       0.75914    0.44987    0.71835    1.000
    P2       P        0.52444    0.02251    0.30311    1.000
    H2       H        0.40700    0.95790    0.33140    1.000
    O14      O        0.58260    0.02370    0.16020    1.000
    O15      O        0.63210    0.93920    0.37460    1.000
    O16      O        0.47240    0.17170    0.34610    1.000
    O17      O        0.29790    0.95390    0.12180    1.000
    O18      O        0.19960    0.77790    0.23030    1.000
    O19      O        0.54290    0.76770    0.03210    1.000
    O20      O        0.43460    0.59610    0.14200    1.000
    O21      O        0.97010    0.44600    0.75830    1.000
    O22      O        0.20460    0.36140    0.68890    1.000
    O23      O        0.91980    0.37410    0.54470    1.000
    O24      O        0.15450    0.29110    0.47530    1.000
    O25      O        0.62450    0.52760    0.58140    1.000
    O26      O        0.53570    0.33490    0.57630    1.000
    C6       C        0.30020    0.82690    0.15680    1.000
    C7       C        0.43920    0.72080    0.10630    1.000
    C8       C        0.07650    0.38930    0.67810    1.000
    C9       C        0.04720    0.34890    0.55480    1.000
    C10      C        0.54640    0.45890    0.54530    1.000
    Mn5      Mn       0.50000    0.00000    0.00000    1.000
