# CIF file generated by openbabel 3.1.0, see https://openbabel.org
data_I
_chemical_name_common 'image0'
_cell_length_a 18.707
_cell_length_b 10.182
_cell_length_c 20.353
_cell_angle_alpha 90
_cell_angle_beta 90
_cell_angle_gamma 90
_space_group_name_H-M_alt 'P 1'
_space_group_name_Hall 'P 1'
loop_
    _symmetry_equiv_pos_as_xyz
    x,y,z
loop_
    _atom_site_label
    _atom_site_type_symbol
    _atom_site_fract_x
    _atom_site_fract_y
    _atom_site_fract_z
    _atom_site_occupancy
    C1       C        0.57841    0.62240    0.43932    1.000
    C2       C        0.61453    0.74040    0.41151    1.000
    C3       C        0.58594    0.86450    0.42217    1.000
    H1       H        0.54610    0.87430    0.44900    1.000
    C4       C        0.61630    0.97270    0.39322    1.000
    C5       C        0.67682    0.95990    0.35374    1.000
    H2       H        0.69750    0.03370    0.33460    1.000
    C6       C        0.70610    0.83580    0.34317    1.000
    C7       C        0.67462    0.72630    0.37109    1.000
    H3       H        0.69340    0.64320    0.36300    1.000
    C8       C        0.58766    0.10810    0.40525    1.000
    C9       C        0.77333    0.88850    0.24599    1.000
    C10      C        0.91571    0.96270    0.12178    1.000
    H4       H        0.92410    0.02720    0.09040    1.000
    C11      C        0.85544    0.97030    0.16169    1.000
    H5       H        0.82340    0.03930    0.15650    1.000
    C12      C        0.84305    0.87560    0.20905    1.000
    C13      C        0.89126    0.77200    0.21630    1.000
    H6       H        0.88360    0.70780    0.24800    1.000
    C14      C        0.95082    0.76570    0.17576    1.000
    H7       H        0.98300    0.69670    0.18050    1.000
    N1       N        0.76784    0.82270    0.30326    1.000
    H8       H        0.80210    0.77230    0.31570    1.000
    N2       N        0.96302    0.86000    0.12865    1.000
    Ni1      Ni       0.45082    0.66328    0.55143    1.000
    O1       O        0.60166    0.51163    0.42456    1.000
    O2       O        0.52552    0.63889    0.47548    1.000
    O3       O        0.53322    0.11926    0.44064    1.000
    O4       O        0.61750    0.20601    0.38105    1.000
    O5       O        0.72645    0.95470    0.22332    1.000
    C15      C        0.42159    0.37760    0.56068    1.000
    C16      C        0.38547    0.25960    0.58849    1.000
    C17      C        0.41406    0.13550    0.57783    1.000
    H9       H        0.45390    0.12570    0.55100    1.000
    C18      C        0.38370    0.02730    0.60678    1.000
    C19      C        0.32318    0.04010    0.64626    1.000
    H10      H        0.30250    0.96630    0.66540    1.000
    C20      C        0.29390    0.16420    0.65683    1.000
    C21      C        0.32538    0.27370    0.62891    1.000
    H11      H        0.30660    0.35680    0.63700    1.000
    C22      C        0.41234    0.89190    0.59475    1.000
    C23      C        0.22667    0.11150    0.75401    1.000
    C24      C        0.08429    0.03730    0.87822    1.000
    H12      H        0.07590    0.97280    0.90960    1.000
    C25      C        0.14456    0.02970    0.83831    1.000
    H13      H        0.17660    0.96070    0.84350    1.000
    C26      C        0.15695    0.12440    0.79095    1.000
    C27      C        0.10874    0.22800    0.78370    1.000
    H14      H        0.11640    0.29220    0.75200    1.000
    C28      C        0.04918    0.23430    0.82424    1.000
    H15      H        0.01700    0.30330    0.81950    1.000
    N3       N        0.23216    0.17730    0.69674    1.000
    H16      H        0.19790    0.22770    0.68430    1.000
    N4       N        0.03698    0.14000    0.87135    1.000
    Ni2      Ni       0.54918    0.33672    0.44857    1.000
    O6       O        0.39834    0.48837    0.57544    1.000
    O7       O        0.47448    0.36111    0.52452    1.000
    O8       O        0.46678    0.88074    0.55936    1.000
    O9       O        0.38250    0.79399    0.61895    1.000
    O10      O        0.27355    0.04530    0.77668    1.000
    C29      C        0.92159    0.87760    0.93932    1.000
    C30      C        0.88547    0.75960    0.91151    1.000
    C31      C        0.91406    0.63550    0.92217    1.000
    H17      H        0.95390    0.62570    0.94900    1.000
    C32      C        0.88370    0.52730    0.89322    1.000
    C33      C        0.82318    0.54010    0.85374    1.000
    H18      H        0.80250    0.46630    0.83460    1.000
    C34      C        0.79390    0.66420    0.84317    1.000
    C35      C        0.82538    0.77370    0.87109    1.000
    H19      H        0.80660    0.85680    0.86300    1.000
    C36      C        0.91234    0.39190    0.90525    1.000
    C37      C        0.72667    0.61150    0.74599    1.000
    C38      C        0.58429    0.53730    0.62178    1.000
    H20      H        0.57590    0.47280    0.59040    1.000
    C39      C        0.64456    0.52970    0.66169    1.000
    H21      H        0.67660    0.46070    0.65650    1.000
    C40      C        0.65695    0.62440    0.70905    1.000
    C41      C        0.60874    0.72800    0.71630    1.000
    H22      H        0.61640    0.79220    0.74800    1.000
    C42      C        0.54918    0.73430    0.67576    1.000
    H23      H        0.51700    0.80330    0.68050    1.000
    N5       N        0.73216    0.67730    0.80326    1.000
    H24      H        0.69790    0.72770    0.81570    1.000
    N6       N        0.53698    0.64000    0.62865    1.000
    Ni3      Ni       0.04918    0.83672    0.05143    1.000
    O11      O        0.89834    0.98837    0.92456    1.000
    O12      O        0.97448    0.86111    0.97548    1.000
    O13      O        0.96678    0.38074    0.94064    1.000
    O14      O        0.88250    0.29399    0.88105    1.000
    O15      O        0.77355    0.54530    0.72332    1.000
    C43      C        0.07841    0.12240    0.06068    1.000
    C44      C        0.11453    0.24040    0.08849    1.000
    C45      C        0.08594    0.36450    0.07783    1.000
    H25      H        0.04610    0.37430    0.05100    1.000
    C46      C        0.11630    0.47270    0.10678    1.000
    C47      C        0.17682    0.45990    0.14626    1.000
    H26      H        0.19750    0.53370    0.16540    1.000
    C48      C        0.20610    0.33580    0.15683    1.000
    C49      C        0.17462    0.22630    0.12891    1.000
    H27      H        0.19340    0.14320    0.13700    1.000
    C50      C        0.08766    0.60810    0.09475    1.000
    C51      C        0.27333    0.38850    0.25401    1.000
    C52      C        0.41571    0.46270    0.37822    1.000
    H28      H        0.42410    0.52720    0.40960    1.000
    C53      C        0.35544    0.47030    0.33831    1.000
    H29      H        0.32340    0.53930    0.34350    1.000
    C54      C        0.34305    0.37560    0.29095    1.000
    C55      C        0.39126    0.27200    0.28370    1.000
    H30      H        0.38360    0.20780    0.25200    1.000
    C56      C        0.45082    0.26570    0.32424    1.000
    H31      H        0.48300    0.19670    0.31950    1.000
    N7       N        0.26784    0.32270    0.19674    1.000
    H32      H        0.30210    0.27230    0.18430    1.000
    N8       N        0.46302    0.36000    0.37135    1.000
    Ni4      Ni       0.95082    0.16328    0.94857    1.000
    O16      O        0.10166    0.01163    0.07544    1.000
    O17      O        0.02552    0.13889    0.02452    1.000
    O18      O        0.03322    0.61926    0.05936    1.000
    O19      O        0.11750    0.70601    0.11895    1.000
    O20      O        0.22645    0.45470    0.27668    1.000
    C57      C        0.42159    0.62240    0.06068    1.000
    C58      C        0.38547    0.74040    0.08849    1.000
    C59      C        0.41406    0.86450    0.07783    1.000
    H33      H        0.45390    0.87430    0.05100    1.000
    C60      C        0.38370    0.97270    0.10678    1.000
    C61      C        0.32318    0.95990    0.14626    1.000
    H34      H        0.30250    0.03370    0.16540    1.000
    C62      C        0.29390    0.83580    0.15683    1.000
    C63      C        0.32538    0.72630    0.12891    1.000
    H35      H        0.30660    0.64320    0.13700    1.000
    C64      C        0.41234    0.10810    0.09475    1.000
    C65      C        0.22667    0.88850    0.25401    1.000
    C66      C        0.08429    0.96270    0.37822    1.000
    H36      H        0.07590    0.02720    0.40960    1.000
    C67      C        0.14456    0.97030    0.33831    1.000
    H37      H        0.17660    0.03930    0.34350    1.000
    C68      C        0.15695    0.87560    0.29095    1.000
    C69      C        0.10874    0.77200    0.28370    1.000
    H38      H        0.11640    0.70780    0.25200    1.000
    C70      C        0.04918    0.76570    0.32424    1.000
    H39      H        0.01700    0.69670    0.31950    1.000
    N9       N        0.23216    0.82270    0.19674    1.000
    H40      H        0.19790    0.77230    0.18430    1.000
    N10      N        0.03698    0.86000    0.37135    1.000
    Ni5      Ni       0.54918    0.66328    0.94857    1.000
    O21      O        0.39834    0.51163    0.07544    1.000
    O22      O        0.47448    0.63889    0.02452    1.000
    O23      O        0.46678    0.11926    0.05936    1.000
    O24      O        0.38250    0.20601    0.11895    1.000
    O25      O        0.27355    0.95470    0.27668    1.000
    C71      C        0.57841    0.37760    0.93932    1.000
    C72      C        0.61453    0.25960    0.91151    1.000
    C73      C        0.58594    0.13550    0.92217    1.000
    H41      H        0.54610    0.12570    0.94900    1.000
    C74      C        0.61630    0.02730    0.89322    1.000
    C75      C        0.67682    0.04010    0.85374    1.000
    H42      H        0.69750    0.96630    0.83460    1.000
    C76      C        0.70610    0.16420    0.84317    1.000
    C77      C        0.67462    0.27370    0.87109    1.000
    H43      H        0.69340    0.35680    0.86300    1.000
    C78      C        0.58766    0.89190    0.90525    1.000
    C79      C        0.77333    0.11150    0.74599    1.000
    C80      C        0.91571    0.03730    0.62178    1.000
    H44      H        0.92410    0.97280    0.59040    1.000
    C81      C        0.85544    0.02970    0.66169    1.000
    H45      H        0.82340    0.96070    0.65650    1.000
    C82      C        0.84305    0.12440    0.70905    1.000
    C83      C        0.89126    0.22800    0.71630    1.000
    H46      H        0.88360    0.29220    0.74800    1.000
    C84      C        0.95082    0.23430    0.67576    1.000
    H47      H        0.98300    0.30330    0.68050    1.000
    N11      N        0.76784    0.17730    0.80326    1.000
    H48      H        0.80210    0.22770    0.81570    1.000
    N12      N        0.96302    0.14000    0.62865    1.000
    Ni6      Ni       0.45082    0.33672    0.05143    1.000
    O26      O        0.60166    0.48837    0.92456    1.000
    O27      O        0.52552    0.36111    0.97548    1.000
    O28      O        0.53322    0.88074    0.94064    1.000
    O29      O        0.61750    0.79399    0.88105    1.000
    O30      O        0.72645    0.04530    0.72332    1.000
    C85      C        0.07841    0.87760    0.56068    1.000
    C86      C        0.11453    0.75960    0.58849    1.000
    C87      C        0.08594    0.63550    0.57783    1.000
    H49      H        0.04610    0.62570    0.55100    1.000
    C88      C        0.11630    0.52730    0.60678    1.000
    C89      C        0.17682    0.54010    0.64626    1.000
    H50      H        0.19750    0.46630    0.66540    1.000
    C90      C        0.20610    0.66420    0.65683    1.000
    C91      C        0.17462    0.77370    0.62891    1.000
    H51      H        0.19340    0.85680    0.63700    1.000
    C92      C        0.08766    0.39190    0.59475    1.000
    C93      C        0.27333    0.61150    0.75401    1.000
    C94      C        0.41571    0.53730    0.87822    1.000
    H52      H        0.42410    0.47280    0.90960    1.000
    C95      C        0.35544    0.52970    0.83831    1.000
    H53      H        0.32340    0.46070    0.84350    1.000
    C96      C        0.34305    0.62440    0.79095    1.000
    C97      C        0.39126    0.72800    0.78370    1.000
    H54      H        0.38360    0.79220    0.75200    1.000
    C98      C        0.45082    0.73430    0.82424    1.000
    H55      H        0.48300    0.80330    0.81950    1.000
    N13      N        0.26784    0.67730    0.69674    1.000
    H56      H        0.30210    0.72770    0.68430    1.000
    N14      N        0.46302    0.64000    0.87135    1.000
    Ni7      Ni       0.95082    0.83672    0.44857    1.000
    O31      O        0.10166    0.98837    0.57544    1.000
    O32      O        0.02552    0.86111    0.52452    1.000
    O33      O        0.03322    0.38074    0.55936    1.000
    O34      O        0.11750    0.29399    0.61895    1.000
    O35      O        0.22645    0.54530    0.77668    1.000
    C99      C        0.92159    0.12240    0.43932    1.000
    C100     C        0.88547    0.24040    0.41151    1.000
    C101     C        0.91406    0.36450    0.42217    1.000
    H57      H        0.95390    0.37430    0.44900    1.000
    C102     C        0.88370    0.47270    0.39322    1.000
    C103     C        0.82318    0.45990    0.35374    1.000
    H58      H        0.80250    0.53370    0.33460    1.000
    C104     C        0.79390    0.33580    0.34317    1.000
    C105     C        0.82538    0.22630    0.37109    1.000
    H59      H        0.80660    0.14320    0.36300    1.000
    C106     C        0.91234    0.60810    0.40525    1.000
    C107     C        0.72667    0.38850    0.24599    1.000
    C108     C        0.58429    0.46270    0.12178    1.000
    H60      H        0.57590    0.52720    0.09040    1.000
    C109     C        0.64456    0.47030    0.16169    1.000
    H61      H        0.67660    0.53930    0.15650    1.000
    C110     C        0.65695    0.37560    0.20905    1.000
    C111     C        0.60874    0.27200    0.21630    1.000
    H62      H        0.61640    0.20780    0.24800    1.000
    C112     C        0.54918    0.26570    0.17576    1.000
    H63      H        0.51700    0.19670    0.18050    1.000
    N15      N        0.73216    0.32270    0.30326    1.000
    H64      H        0.69790    0.27230    0.31570    1.000
    N16      N        0.53698    0.36000    0.12865    1.000
    Ni8      Ni       0.04918    0.16328    0.55143    1.000
    O36      O        0.89834    0.01163    0.42456    1.000
    O37      O        0.97448    0.13889    0.47548    1.000
    O38      O        0.96678    0.61926    0.44064    1.000
    O39      O        0.88250    0.70601    0.38105    1.000
    O40      O        0.77355    0.45470    0.22332    1.000
