# CIF file generated by openbabel 3.1.0, see https://openbabel.org
data_I
_chemical_name_common 'image0'
_cell_length_a 11.5432
_cell_length_b 11.6723
_cell_length_c 11.8414
_cell_angle_alpha 65.44
_cell_angle_beta 78.968
_cell_angle_gamma 72.175
_space_group_name_H-M_alt 'P 1'
_space_group_name_Hall 'P 1'
loop_
    _symmetry_equiv_pos_as_xyz
    x,y,z
loop_
    _atom_site_label
    _atom_site_type_symbol
    _atom_site_fract_x
    _atom_site_fract_y
    _atom_site_fract_z
    _atom_site_occupancy
    O1       O        0.54650    0.40140    0.37840    1.000
    O2       O        0.53970    0.42750    0.18390    1.000
    O3       O        0.57880    0.65280    0.95210    1.000
    O4       O        0.54910    0.86140    0.91580    1.000
    N1       N        0.48090    0.65710    0.32880    1.000
    N2       N        0.48350    0.83030    0.15280    1.000
    N3       N        0.69120    0.50420    0.49730    1.000
    N4       N        0.69600    0.94970    0.03330    1.000
    N5       N        0.32450    0.62260    0.03080    1.000
    C1       C        0.53470    0.47380    0.26250    1.000
    C2       C        0.51190    0.61580    0.23170    1.000
    C3       C        0.51400    0.72440    0.12190    1.000
    C4       C        0.54890    0.74540    0.98910    1.000
    C5       C        0.46420    0.78650    0.27740    1.000
    C6       C        0.42960    0.87140    0.35200    1.000
    H1       H        0.47000    0.94170    0.31230    1.000
    H2       H        0.45860    0.82030    0.43450    1.000
    C7       C        0.29270    0.92910    0.36410    1.000
    H3       H        0.27590    0.98330    0.41090    1.000
    H4       H        0.25240    0.86000    0.40630    1.000
    H5       H        0.26350    0.98020    0.28270    1.000
    C8       C        0.78110    0.40180    0.50210    1.000
    H6       H        0.76250    0.32940    0.50280    1.000
    C9       C        0.90330    0.39500    0.50620    1.000
    H7       H        0.96290    0.31810    0.51360    1.000
    C10      C        0.93510    0.50170    0.49920    1.000
    C11      C        0.84050    0.60510    0.49620    1.000
    H8       H        0.85520    0.67920    0.49610    1.000
    C12      C        0.72270    0.60290    0.49330    1.000
    H9       H        0.66130    0.67790    0.48810    1.000
    C13      C        0.74510    0.86270    0.13690    1.000
    H10      H        0.69340    0.83890    0.20860    1.000
    C14      C        0.86850    0.80480    0.14570    1.000
    H11      H        0.89700    0.74460    0.22220    1.000
    C15      C        0.94980    0.83460    0.04330    1.000
    C16      C        0.89960    0.93130    0.93610    1.000
    H12      H        0.94920    0.95960    0.86370    1.000
    C17      C        0.77470    0.98590    0.93740    1.000
    H13      H        0.74420    0.05330    0.86500    1.000
    C18      C        0.08140    0.76630    0.04380    1.000
    C19      C        0.12750    0.64780    0.13780    1.000
    H14      H        0.07710    0.61410    0.20780    1.000
    C20      C        0.24590    0.58080    0.12810    1.000
    H15      H        0.27370    0.50170    0.19250    1.000
    C21      C        0.28140    0.73930    0.94290    1.000
    H16      H        0.33460    0.77300    0.87580    1.000
    C22      C        0.16300    0.81230    0.94630    1.000
    H17      H        0.13820    0.89290    0.88260    1.000
    O5       O        0.45350    0.59860    0.62160    1.000
    O6       O        0.46030    0.57250    0.81610    1.000
    O7       O        0.42120    0.34720    0.04790    1.000
    O8       O        0.45090    0.13860    0.08420    1.000
    N6       N        0.51910    0.34290    0.67120    1.000
    N7       N        0.51650    0.16970    0.84720    1.000
    N8       N        0.30880    0.49580    0.50270    1.000
    N9       N        0.30400    0.05030    0.96670    1.000
    N10      N        0.67550    0.37740    0.96920    1.000
    C23      C        0.46530    0.52620    0.73750    1.000
    C24      C        0.48810    0.38420    0.76830    1.000
    C25      C        0.48600    0.27560    0.87810    1.000
    C26      C        0.45110    0.25460    0.01090    1.000
    C27      C        0.53580    0.21350    0.72260    1.000
    C28      C        0.57040    0.12860    0.64800    1.000
    H18      H        0.53000    0.05830    0.68770    1.000
    H19      H        0.54140    0.17970    0.56550    1.000
    C29      C        0.70730    0.07090    0.63590    1.000
    H20      H        0.72410    0.01670    0.58910    1.000
    H21      H        0.74760    0.14000    0.59370    1.000
    H22      H        0.73650    0.01980    0.71730    1.000
    C30      C        0.21890    0.59820    0.49790    1.000
    H23      H        0.23750    0.67060    0.49720    1.000
    C31      C        0.09670    0.60500    0.49380    1.000
    H24      H        0.03710    0.68190    0.48640    1.000
    C32      C        0.06490    0.49830    0.50080    1.000
    C33      C        0.15950    0.39490    0.50380    1.000
    H25      H        0.14480    0.32080    0.50390    1.000
    C34      C        0.27730    0.39710    0.50670    1.000
    H26      H        0.33870    0.32210    0.51190    1.000
    C35      C        0.25490    0.13730    0.86310    1.000
    H27      H        0.30660    0.16110    0.79140    1.000
    C36      C        0.13150    0.19520    0.85430    1.000
    H28      H        0.10300    0.25540    0.77780    1.000
    C37      C        0.05020    0.16540    0.95670    1.000
    C38      C        0.10040    0.06870    0.06390    1.000
    H29      H        0.05080    0.04040    0.13630    1.000
    C39      C        0.22530    0.01410    0.06260    1.000
    H30      H        0.25580    0.94670    0.13500    1.000
    C40      C        0.91860    0.23370    0.95620    1.000
    C41      C        0.87250    0.35220    0.86220    1.000
    H31      H        0.92290    0.38590    0.79220    1.000
    C42      C        0.75410    0.41920    0.87190    1.000
    H32      H        0.72630    0.49830    0.80750    1.000
    C43      C        0.71860    0.26070    0.05710    1.000
    H33      H        0.66540    0.22700    0.12420    1.000
    C44      C        0.83700    0.18770    0.05370    1.000
    H34      H        0.86180    0.10710    0.11740    1.000
    Co1      Co       0.50000    0.50000    0.50000    1.000
    Co2      Co       0.50000    0.50000    0.00000    1.000
    Co3      Co       0.50000    0.00000    0.00000    1.000
