# CIF file generated by openbabel 3.1.0, see https://openbabel.org
data_I
_chemical_name_common 'image0'
_cell_length_a 10.297
_cell_length_b 8.3034
_cell_length_c 10.5
_cell_angle_alpha 90
_cell_angle_beta 90
_cell_angle_gamma 90
_space_group_name_H-M_alt 'P 1'
_space_group_name_Hall 'P 1'
loop_
    _symmetry_equiv_pos_as_xyz
    x,y,z
loop_
    _atom_site_label
    _atom_site_type_symbol
    _atom_site_fract_x
    _atom_site_fract_y
    _atom_site_fract_z
    _atom_site_occupancy
    P1       P        0.66720    0.06730    0.37330    1.000
    O1       O        0.77040    0.07400    0.27030    1.000
    O2       O        0.52950    0.06930    0.31780    1.000
    O3       O        0.68830    0.92940    0.46330    1.000
    H1       H        0.00340    0.17350    0.96180    1.000
    H2       H        0.79820    0.15640    0.60750    1.000
    P2       P        0.83280    0.93270    0.87330    1.000
    O4       O        0.72960    0.92600    0.77030    1.000
    O5       O        0.97050    0.93070    0.81780    1.000
    O6       O        0.81170    0.07060    0.96330    1.000
    H3       H        0.49660    0.82650    0.46180    1.000
    H4       H        0.70180    0.84360    0.10750    1.000
    P3       P        0.33280    0.56730    0.62670    1.000
    O7       O        0.22960    0.57400    0.72970    1.000
    O8       O        0.47050    0.56930    0.68220    1.000
    O9       O        0.31170    0.42940    0.53670    1.000
    H5       H        0.99660    0.67350    0.03820    1.000
    H6       H        0.20180    0.65640    0.39250    1.000
    P4       P        0.16720    0.43270    0.12670    1.000
    O10      O        0.27040    0.42600    0.22970    1.000
    O11      O        0.02950    0.43070    0.18220    1.000
    O12      O        0.18830    0.57060    0.03670    1.000
    H7       H        0.50340    0.32650    0.53820    1.000
    H8       H        0.29820    0.34360    0.89250    1.000
    P5       P        0.33280    0.93270    0.62670    1.000
    O13      O        0.22960    0.92600    0.72970    1.000
    O14      O        0.47050    0.93070    0.68220    1.000
    O15      O        0.31170    0.07060    0.53670    1.000
    H9       H        0.99660    0.82650    0.03820    1.000
    H10      H        0.20180    0.84360    0.39250    1.000
    P6       P        0.16720    0.06730    0.12670    1.000
    O16      O        0.27040    0.07400    0.22970    1.000
    O17      O        0.02950    0.06930    0.18220    1.000
    O18      O        0.18830    0.92940    0.03670    1.000
    H11      H        0.50340    0.17350    0.53820    1.000
    H12      H        0.29820    0.15640    0.89250    1.000
    P7       P        0.66720    0.43270    0.37330    1.000
    O19      O        0.77040    0.42600    0.27030    1.000
    O20      O        0.52950    0.43070    0.31780    1.000
    O21      O        0.68830    0.57060    0.46330    1.000
    H13      H        0.00340    0.32650    0.96180    1.000
    H14      H        0.79820    0.34360    0.60750    1.000
    P8       P        0.83280    0.56730    0.87330    1.000
    O22      O        0.72960    0.57400    0.77030    1.000
    O23      O        0.97050    0.56930    0.81780    1.000
    O24      O        0.81170    0.42940    0.96330    1.000
    H15      H        0.49660    0.67350    0.46180    1.000
    H16      H        0.70180    0.65640    0.10750    1.000
    Tb1      Tb       0.86000    0.25000    0.12043    1.000
    O25      O        0.55780    0.25000    0.54490    1.000
    C1       C        0.67730    0.25000    0.46800    1.000
    C2       C        0.79970    0.25000    0.55400    1.000
    H17      H        0.87570    0.25000    0.50140    1.000
    Tb2      Tb       0.64000    0.75000    0.62043    1.000
    O26      O        0.94220    0.75000    0.04490    1.000
    C3       C        0.82270    0.75000    0.96800    1.000
    C4       C        0.70030    0.75000    0.05400    1.000
    H18      H        0.62430    0.75000    0.00140    1.000
    Tb3      Tb       0.14000    0.75000    0.87957    1.000
    O27      O        0.44220    0.75000    0.45510    1.000
    C5       C        0.32270    0.75000    0.53200    1.000
    C6       C        0.20030    0.75000    0.44600    1.000
    H19      H        0.12430    0.75000    0.49860    1.000
    Tb4      Tb       0.36000    0.25000    0.37957    1.000
    O28      O        0.05780    0.25000    0.95510    1.000
    C7       C        0.17730    0.25000    0.03200    1.000
    C8       C        0.29970    0.25000    0.94600    1.000
    H20      H        0.37570    0.25000    0.99860    1.000
