# CIF file generated by openbabel 3.1.0, see https://openbabel.org
data_I
_chemical_name_common 'image0'
_cell_length_a 10.0269
_cell_length_b 16.4397
_cell_length_c 12.7548
_cell_angle_alpha 90
_cell_angle_beta 90.645
_cell_angle_gamma 90
_space_group_name_H-M_alt 'P 1'
_space_group_name_Hall 'P 1'
loop_
    _symmetry_equiv_pos_as_xyz
    x,y,z
loop_
    _atom_site_label
    _atom_site_type_symbol
    _atom_site_fract_x
    _atom_site_fract_y
    _atom_site_fract_z
    _atom_site_occupancy
    Mn1      Mn       0.75160    0.00013    0.49823    1.000
    C1       C        0.76050    0.80600    0.45160    1.000
    H1       H        0.72700    0.80300    0.51920    1.000
    C2       C        0.58880    0.13410    0.61930    1.000
    H2       H        0.51960    0.09880    0.60150    1.000
    C3       C        0.56050    0.20050    0.68040    1.000
    H3       H        0.47410    0.20900    0.70360    1.000
    O1       O        0.37920    0.43302    0.90240    1.000
    O2       O        0.59160    0.47215    0.88830    1.000
    C4       C        0.78310    0.73430    0.39800    1.000
    H4       H        0.76470    0.68470    0.42960    1.000
    O3       O        0.91320    0.51831    0.10970    1.000
    C5       C        0.86440    0.66020    0.24030    1.000
    H5       H        0.81530    0.61400    0.25650    1.000
    O4       O        0.11970    0.56881    0.10140    1.000
    C6       C        0.95680    0.65350    0.16830    1.000
    H6       H        0.99900    0.70060    0.14540    1.000
    C7       C        0.52040    0.34890    0.80910    1.000
    H7       H        0.44800    0.31510    0.79510    1.000
    C8       C        0.78720    0.23870    0.66940    1.000
    H8       H        0.85760    0.27390    0.68430    1.000
    C9       C        0.80820    0.16990    0.60930    1.000
    H9       H        0.89380    0.15970    0.58530    1.000
    C10      C        0.85500    0.81270    0.25470    1.000
    H10      H        0.88660    0.81760    0.18670    1.000
    C11      C        0.83310    0.73620    0.29740    1.000
    N1       N        0.78460    0.87959    0.41090    1.000
    C12      C        0.82990    0.88120    0.31290    1.000
    H11      H        0.84540    0.93160    0.28230    1.000
    N2       N        0.71190    0.11752    0.58420    1.000
    C13      C        0.66080    0.25510    0.70740    1.000
    C14      C        0.63750    0.32770    0.77170    1.000
    H12      H        0.71020    0.36100    0.78710    1.000
    C15      C        0.99750    0.57360    0.12150    1.000
    C16      C        0.49680    0.42380    0.87280    1.000
    Mn2      Mn       0.24840    0.50013    0.00177    1.000
    C17      C        0.23950    0.30600    0.04840    1.000
    H13      H        0.27300    0.30300    0.98080    1.000
    C18      C        0.41120    0.63410    0.88070    1.000
    H14      H        0.48040    0.59880    0.89850    1.000
    C19      C        0.43950    0.70050    0.81960    1.000
    H15      H        0.52590    0.70900    0.79640    1.000
    O5       O        0.62080    0.93302    0.59760    1.000
    O6       O        0.40840    0.97215    0.61170    1.000
    C20      C        0.21690    0.23430    0.10200    1.000
    H16      H        0.23530    0.18470    0.07040    1.000
    O7       O        0.08680    0.01831    0.39030    1.000
    C21      C        0.13560    0.16020    0.25970    1.000
    H17      H        0.18470    0.11400    0.24350    1.000
    O8       O        0.88030    0.06881    0.39860    1.000
    C22      C        0.04320    0.15350    0.33170    1.000
    H18      H        0.00100    0.20060    0.35460    1.000
    C23      C        0.47960    0.84890    0.69090    1.000
    H19      H        0.55200    0.81510    0.70490    1.000
    C24      C        0.21280    0.73870    0.83060    1.000
    H20      H        0.14240    0.77390    0.81570    1.000
    C25      C        0.19180    0.66990    0.89070    1.000
    H21      H        0.10620    0.65970    0.91470    1.000
    C26      C        0.14500    0.31270    0.24530    1.000
    H22      H        0.11340    0.31760    0.31330    1.000
    C27      C        0.16690    0.23620    0.20260    1.000
    N3       N        0.21540    0.37959    0.08910    1.000
    C28      C        0.17010    0.38120    0.18710    1.000
    H23      H        0.15460    0.43160    0.21770    1.000
    N4       N        0.28810    0.61752    0.91580    1.000
    C29      C        0.33920    0.75510    0.79260    1.000
    C30      C        0.36250    0.82770    0.72830    1.000
    H24      H        0.28980    0.86100    0.71290    1.000
    C31      C        0.00250    0.07360    0.37850    1.000
    C32      C        0.50320    0.92380    0.62720    1.000
    Mn3      Mn       0.24840    0.99987    0.50177    1.000
    C33      C        0.23950    0.19400    0.54840    1.000
    H25      H        0.27300    0.19700    0.48080    1.000
    C34      C        0.41120    0.86590    0.38070    1.000
    H26      H        0.48040    0.90120    0.39850    1.000
    C35      C        0.43950    0.79950    0.31960    1.000
    H27      H        0.52590    0.79100    0.29640    1.000
    O9       O        0.62080    0.56698    0.09760    1.000
    O10      O        0.40840    0.52785    0.11170    1.000
    C36      C        0.21690    0.26570    0.60200    1.000
    H28      H        0.23530    0.31530    0.57040    1.000
    O11      O        0.08680    0.48169    0.89030    1.000
    C37      C        0.13560    0.33980    0.75970    1.000
    H29      H        0.18470    0.38600    0.74350    1.000
    O12      O        0.88030    0.43119    0.89860    1.000
    C38      C        0.04320    0.34650    0.83170    1.000
    H30      H        0.00100    0.29940    0.85460    1.000
    C39      C        0.47960    0.65110    0.19090    1.000
    H31      H        0.55200    0.68490    0.20490    1.000
    C40      C        0.21280    0.76130    0.33060    1.000
    H32      H        0.14240    0.72610    0.31570    1.000
    C41      C        0.19180    0.83010    0.39070    1.000
    H33      H        0.10620    0.84030    0.41470    1.000
    C42      C        0.14500    0.18730    0.74530    1.000
    H34      H        0.11340    0.18240    0.81330    1.000
    C43      C        0.16690    0.26380    0.70260    1.000
    N5       N        0.21540    0.12041    0.58910    1.000
    C44      C        0.17010    0.11880    0.68710    1.000
    H35      H        0.15460    0.06840    0.71770    1.000
    N6       N        0.28810    0.88248    0.41580    1.000
    C45      C        0.33920    0.74490    0.29260    1.000
    C46      C        0.36250    0.67230    0.22830    1.000
    H36      H        0.28980    0.63900    0.21290    1.000
    C47      C        0.00250    0.42640    0.87850    1.000
    C48      C        0.50320    0.57620    0.12720    1.000
    Mn4      Mn       0.75160    0.49987    0.99823    1.000
    C49      C        0.76050    0.69400    0.95160    1.000
    H37      H        0.72700    0.69700    0.01920    1.000
    C50      C        0.58880    0.36590    0.11930    1.000
    H38      H        0.51960    0.40120    0.10150    1.000
    C51      C        0.56050    0.29950    0.18040    1.000
    H39      H        0.47410    0.29100    0.20360    1.000
    O13      O        0.37920    0.06698    0.40240    1.000
    O14      O        0.59160    0.02785    0.38830    1.000
    C52      C        0.78310    0.76570    0.89800    1.000
    H40      H        0.76470    0.81530    0.92960    1.000
    O15      O        0.91320    0.98169    0.60970    1.000
    C53      C        0.86440    0.83980    0.74030    1.000
    H41      H        0.81530    0.88600    0.75650    1.000
    O16      O        0.11970    0.93119    0.60140    1.000
    C54      C        0.95680    0.84650    0.66830    1.000
    H42      H        0.99900    0.79940    0.64540    1.000
    C55      C        0.52040    0.15110    0.30910    1.000
    H43      H        0.44800    0.18490    0.29510    1.000
    C56      C        0.78720    0.26130    0.16940    1.000
    H44      H        0.85760    0.22610    0.18430    1.000
    C57      C        0.80820    0.33010    0.10930    1.000
    H45      H        0.89380    0.34030    0.08530    1.000
    C58      C        0.85500    0.68730    0.75470    1.000
    H46      H        0.88660    0.68240    0.68670    1.000
    C59      C        0.83310    0.76380    0.79740    1.000
    N7       N        0.78460    0.62041    0.91090    1.000
    C60      C        0.82990    0.61880    0.81290    1.000
    H47      H        0.84540    0.56840    0.78230    1.000
    N8       N        0.71190    0.38248    0.08420    1.000
    C61      C        0.66080    0.24490    0.20740    1.000
    C62      C        0.63750    0.17230    0.27170    1.000
    H48      H        0.71020    0.13900    0.28710    1.000
    C63      C        0.99750    0.92640    0.62150    1.000
    C64      C        0.49680    0.07620    0.37280    1.000
