# CIF file generated by openbabel 3.1.0, see https://openbabel.org
data_I
_chemical_name_common 'image0'
_cell_length_a 18.7789
_cell_length_b 17.827
_cell_length_c 14.3603
_cell_angle_alpha 90
_cell_angle_beta 93.827
_cell_angle_gamma 90
_space_group_name_H-M_alt 'P 1'
_space_group_name_Hall 'P 1'
loop_
    _symmetry_equiv_pos_as_xyz
    x,y,z
loop_
    _atom_site_label
    _atom_site_type_symbol
    _atom_site_fract_x
    _atom_site_fract_y
    _atom_site_fract_z
    _atom_site_occupancy
    Zn1      Zn       0.40718    0.08895    0.84231    1.000
    O1       O        0.56083    0.08174    0.92200    1.000
    O2       O        0.48027    0.16686    0.87250    1.000
    O3       O        0.81646    0.35915    0.84530    1.000
    O4       O        0.77416    0.41308    0.97160    1.000
    O5       O        0.58600    0.12510    0.72710    1.000
    O6       O        0.68360    0.16750    0.68160    1.000
    O7       O        0.42510    0.06305    0.71390    1.000
    O8       O        0.50950    0.18400    0.60100    1.000
    O9       O        0.40580    0.15700    0.56700    1.000
    N1       N        0.63730    0.16620    0.73760    1.000
    N2       N        0.47060    0.14280    0.57390    1.000
    C1       C        0.60050    0.20530    0.89330    1.000
    C2       C        0.64780    0.21120    0.82380    1.000
    C3       C        0.70290    0.26330    0.82670    1.000
    H1       H        0.73480    0.26520    0.77810    1.000
    C4       C        0.71080    0.31190    0.90070    1.000
    C5       C        0.66420    0.30710    0.97050    1.000
    H2       H        0.66910    0.34070    0.02190    1.000
    C6       C        0.61000    0.25400    0.96690    1.000
    H3       H        0.57900    0.25130    0.01650    1.000
    C7       C        0.54330    0.14600    0.89480    1.000
    C8       C        0.77170    0.36670    0.90670    1.000
    C9       C        0.48370    0.06710    0.54140    1.000
    Zn2      Zn       0.90718    0.58895    0.84231    1.000
    O10      O        0.06083    0.58174    0.92200    1.000
    O11      O        0.98027    0.66686    0.87250    1.000
    O12      O        0.31646    0.85915    0.84530    1.000
    O13      O        0.27416    0.91308    0.97160    1.000
    O14      O        0.08600    0.62510    0.72710    1.000
    O15      O        0.18360    0.66750    0.68160    1.000
    O16      O        0.92510    0.56305    0.71390    1.000
    O17      O        0.00950    0.68400    0.60100    1.000
    O18      O        0.90580    0.65700    0.56700    1.000
    N3       N        0.13730    0.66620    0.73760    1.000
    N4       N        0.97060    0.64280    0.57390    1.000
    C10      C        0.10050    0.70530    0.89330    1.000
    C11      C        0.14780    0.71120    0.82380    1.000
    C12      C        0.20290    0.76330    0.82670    1.000
    H4       H        0.23480    0.76520    0.77810    1.000
    C13      C        0.21080    0.81190    0.90070    1.000
    C14      C        0.16420    0.80710    0.97050    1.000
    H5       H        0.16910    0.84070    0.02190    1.000
    C15      C        0.11000    0.75400    0.96690    1.000
    H6       H        0.07900    0.75130    0.01650    1.000
    C16      C        0.04330    0.64600    0.89480    1.000
    C17      C        0.27170    0.86670    0.90670    1.000
    C18      C        0.98370    0.56710    0.54140    1.000
    Zn3      Zn       0.59282    0.08895    0.15769    1.000
    O19      O        0.43917    0.08174    0.07800    1.000
    O20      O        0.51973    0.16686    0.12750    1.000
    O21      O        0.18354    0.35915    0.15470    1.000
    O22      O        0.22584    0.41308    0.02840    1.000
    O23      O        0.41400    0.12510    0.27290    1.000
    O24      O        0.31640    0.16750    0.31840    1.000
    O25      O        0.57490    0.06305    0.28610    1.000
    O26      O        0.49050    0.18400    0.39900    1.000
    O27      O        0.59420    0.15700    0.43300    1.000
    N5       N        0.36270    0.16620    0.26240    1.000
    N6       N        0.52940    0.14280    0.42610    1.000
    C19      C        0.39950    0.20530    0.10670    1.000
    C20      C        0.35220    0.21120    0.17620    1.000
    C21      C        0.29710    0.26330    0.17330    1.000
    H7       H        0.26520    0.26520    0.22190    1.000
    C22      C        0.28920    0.31190    0.09930    1.000
    C23      C        0.33580    0.30710    0.02950    1.000
    H8       H        0.33090    0.34070    0.97810    1.000
    C24      C        0.39000    0.25400    0.03310    1.000
    H9       H        0.42100    0.25130    0.98350    1.000
    C25      C        0.45670    0.14600    0.10520    1.000
    C26      C        0.22830    0.36670    0.09330    1.000
    C27      C        0.51630    0.06710    0.45860    1.000
    Zn4      Zn       0.09282    0.58895    0.15769    1.000
    O28      O        0.93917    0.58174    0.07800    1.000
    O29      O        0.01973    0.66686    0.12750    1.000
    O30      O        0.68354    0.85915    0.15470    1.000
    O31      O        0.72584    0.91308    0.02840    1.000
    O32      O        0.91400    0.62510    0.27290    1.000
    O33      O        0.81640    0.66750    0.31840    1.000
    O34      O        0.07490    0.56305    0.28610    1.000
    O35      O        0.99050    0.68400    0.39900    1.000
    O36      O        0.09420    0.65700    0.43300    1.000
    N7       N        0.86270    0.66620    0.26240    1.000
    N8       N        0.02940    0.64280    0.42610    1.000
    C28      C        0.89950    0.70530    0.10670    1.000
    C29      C        0.85220    0.71120    0.17620    1.000
    C30      C        0.79710    0.76330    0.17330    1.000
    H10      H        0.76520    0.76520    0.22190    1.000
    C31      C        0.78920    0.81190    0.09930    1.000
    C32      C        0.83580    0.80710    0.02950    1.000
    H11      H        0.83090    0.84070    0.97810    1.000
    C33      C        0.89000    0.75400    0.03310    1.000
    H12      H        0.92100    0.75130    0.98350    1.000
    C34      C        0.95670    0.64600    0.10520    1.000
    C35      C        0.72830    0.86670    0.09330    1.000
    C36      C        0.01630    0.56710    0.45860    1.000
    Zn5      Zn       0.59282    0.91105    0.15769    1.000
    O37      O        0.43917    0.91826    0.07800    1.000
    O38      O        0.51973    0.83314    0.12750    1.000
    O39      O        0.18354    0.64085    0.15470    1.000
    O40      O        0.22584    0.58692    0.02840    1.000
    O41      O        0.41400    0.87490    0.27290    1.000
    O42      O        0.31640    0.83250    0.31840    1.000
    O43      O        0.57490    0.93695    0.28610    1.000
    O44      O        0.49050    0.81600    0.39900    1.000
    O45      O        0.59420    0.84300    0.43300    1.000
    N9       N        0.36270    0.83380    0.26240    1.000
    N10      N        0.52940    0.85720    0.42610    1.000
    C37      C        0.39950    0.79470    0.10670    1.000
    C38      C        0.35220    0.78880    0.17620    1.000
    C39      C        0.29710    0.73670    0.17330    1.000
    H13      H        0.26520    0.73480    0.22190    1.000
    C40      C        0.28920    0.68810    0.09930    1.000
    C41      C        0.33580    0.69290    0.02950    1.000
    H14      H        0.33090    0.65930    0.97810    1.000
    C42      C        0.39000    0.74600    0.03310    1.000
    H15      H        0.42100    0.74870    0.98350    1.000
    C43      C        0.45670    0.85400    0.10520    1.000
    C44      C        0.22830    0.63330    0.09330    1.000
    C45      C        0.51630    0.93290    0.45860    1.000
    Zn6      Zn       0.09282    0.41105    0.15769    1.000
    O46      O        0.93917    0.41826    0.07800    1.000
    O47      O        0.01973    0.33314    0.12750    1.000
    O48      O        0.68354    0.14085    0.15470    1.000
    O49      O        0.72584    0.08692    0.02840    1.000
    O50      O        0.91400    0.37490    0.27290    1.000
    O51      O        0.81640    0.33250    0.31840    1.000
    O52      O        0.07490    0.43695    0.28610    1.000
    O53      O        0.99050    0.31600    0.39900    1.000
    O54      O        0.09420    0.34300    0.43300    1.000
    N11      N        0.86270    0.33380    0.26240    1.000
    N12      N        0.02940    0.35720    0.42610    1.000
    C46      C        0.89950    0.29470    0.10670    1.000
    C47      C        0.85220    0.28880    0.17620    1.000
    C48      C        0.79710    0.23670    0.17330    1.000
    H16      H        0.76520    0.23480    0.22190    1.000
    C49      C        0.78920    0.18810    0.09930    1.000
    C50      C        0.83580    0.19290    0.02950    1.000
    H17      H        0.83090    0.15930    0.97810    1.000
    C51      C        0.89000    0.24600    0.03310    1.000
    H18      H        0.92100    0.24870    0.98350    1.000
    C52      C        0.95670    0.35400    0.10520    1.000
    C53      C        0.72830    0.13330    0.09330    1.000
    C54      C        0.01630    0.43290    0.45860    1.000
    Zn7      Zn       0.40718    0.91105    0.84231    1.000
    O55      O        0.56083    0.91826    0.92200    1.000
    O56      O        0.48027    0.83314    0.87250    1.000
    O57      O        0.81646    0.64085    0.84530    1.000
    O58      O        0.77416    0.58692    0.97160    1.000
    O59      O        0.58600    0.87490    0.72710    1.000
    O60      O        0.68360    0.83250    0.68160    1.000
    O61      O        0.42510    0.93695    0.71390    1.000
    O62      O        0.50950    0.81600    0.60100    1.000
    O63      O        0.40580    0.84300    0.56700    1.000
    N13      N        0.63730    0.83380    0.73760    1.000
    N14      N        0.47060    0.85720    0.57390    1.000
    C55      C        0.60050    0.79470    0.89330    1.000
    C56      C        0.64780    0.78880    0.82380    1.000
    C57      C        0.70290    0.73670    0.82670    1.000
    H19      H        0.73480    0.73480    0.77810    1.000
    C58      C        0.71080    0.68810    0.90070    1.000
    C59      C        0.66420    0.69290    0.97050    1.000
    H20      H        0.66910    0.65930    0.02190    1.000
    C60      C        0.61000    0.74600    0.96690    1.000
    H21      H        0.57900    0.74870    0.01650    1.000
    C61      C        0.54330    0.85400    0.89480    1.000
    C62      C        0.77170    0.63330    0.90670    1.000
    C63      C        0.48370    0.93290    0.54140    1.000
    Zn8      Zn       0.90718    0.41105    0.84231    1.000
    O64      O        0.06083    0.41826    0.92200    1.000
    O65      O        0.98027    0.33314    0.87250    1.000
    O66      O        0.31646    0.14085    0.84530    1.000
    O67      O        0.27416    0.08692    0.97160    1.000
    O68      O        0.08600    0.37490    0.72710    1.000
    O69      O        0.18360    0.33250    0.68160    1.000
    O70      O        0.92510    0.43695    0.71390    1.000
    O71      O        0.00950    0.31600    0.60100    1.000
    O72      O        0.90580    0.34300    0.56700    1.000
    N15      N        0.13730    0.33380    0.73760    1.000
    N16      N        0.97060    0.35720    0.57390    1.000
    C64      C        0.10050    0.29470    0.89330    1.000
    C65      C        0.14780    0.28880    0.82380    1.000
    C66      C        0.20290    0.23670    0.82670    1.000
    H22      H        0.23480    0.23480    0.77810    1.000
    C67      C        0.21080    0.18810    0.90070    1.000
    C68      C        0.16420    0.19290    0.97050    1.000
    H23      H        0.16910    0.15930    0.02190    1.000
    C69      C        0.11000    0.24600    0.96690    1.000
    H24      H        0.07900    0.24870    0.01650    1.000
    C70      C        0.04330    0.35400    0.89480    1.000
    C71      C        0.27170    0.13330    0.90670    1.000
    C72      C        0.98370    0.43290    0.54140    1.000
    Zn9      Zn       0.50000    0.00000    0.00000    1.000
    Zn10     Zn       0.00000    0.50000    0.00000    1.000
    Zn11     Zn       0.33810    0.00000    0.00940    1.000
    O73      O        0.41150    0.00000    0.91960    1.000
    C73      C        0.43600    0.00000    0.67830    1.000
    C74      C        0.46710    0.00000    0.58330    1.000
    Zn12     Zn       0.83810    0.50000    0.00940    1.000
    O74      O        0.91150    0.50000    0.91960    1.000
    C75      C        0.93600    0.50000    0.67830    1.000
    C76      C        0.96710    0.50000    0.58330    1.000
    Zn13     Zn       0.66190    0.00000    0.99060    1.000
    O75      O        0.58850    0.00000    0.08040    1.000
    C77      C        0.56400    0.00000    0.32170    1.000
    C78      C        0.53290    0.00000    0.41670    1.000
    Zn14     Zn       0.16190    0.50000    0.99060    1.000
    O76      O        0.08850    0.50000    0.08040    1.000
    C79      C        0.06400    0.50000    0.32170    1.000
    C80      C        0.03290    0.50000    0.41670    1.000
