# CIF file generated by openbabel 3.1.0, see https://openbabel.org
data_I
_chemical_name_common 'image0'
_cell_length_a 26.3296
_cell_length_b 26.3296
_cell_length_c 23.314
_cell_angle_alpha 90
_cell_angle_beta 90
_cell_angle_gamma 120
_space_group_name_H-M_alt 'P 1'
_space_group_name_Hall 'P 1'
loop_
    _symmetry_equiv_pos_as_xyz
    x,y,z
loop_
    _atom_site_label
    _atom_site_type_symbol
    _atom_site_fract_x
    _atom_site_fract_y
    _atom_site_fract_z
    _atom_site_occupancy
    Cr1      Cr       0.35819    0.00745    0.33737    1.000
    Mn1      Mn       0.59854    0.09557    0.32759    1.000
    O1       O        0.67420    0.27334    0.26663    1.000
    O2       O        0.61543    0.26560    0.36023    1.000
    O3       O        0.65160    0.17993    0.27460    1.000
    O4       O        0.59160    0.17260    0.37304    1.000
    C1       C        0.64960    0.22320    0.29150    1.000
    C2       C        0.61620    0.21860    0.34640    1.000
    O5       O        0.51960    0.09960    0.27920    1.000
    O6       O        0.51768    0.04805    0.38222    1.000
    O7       O        0.42268    0.05660    0.28422    1.000
    O8       O        0.42380    0.02106    0.38842    1.000
    C3       C        0.47250    0.06910    0.30320    1.000
    C4       C        0.47300    0.04410    0.36350    1.000
    O9       O        0.29964    0.98900    0.27680    1.000
    O10      O        0.35420    0.93533    0.30910    1.000
    O11      O        0.31750    0.87080    0.23850    1.000
    O12      O        0.26100    0.92850    0.20180    1.000
    C5       C        0.32370    0.91420    0.26530    1.000
    C6       C        0.29110    0.94620    0.24490    1.000
    O13      O        0.35381    0.07648    0.36480    1.000
    O14      O        0.29729    0.96700    0.39600    1.000
    O15      O        0.30390    0.10006    0.42360    1.000
    O16      O        0.24260    0.98510    0.45710    1.000
    C7       C        0.31500    0.06460    0.40180    1.000
    C8       C        0.28190    0.00040    0.42160    1.000
    Cr2      Cr       0.02486    0.34078    0.67070    1.000
    Mn2      Mn       0.26521    0.42890    0.66092    1.000
    O17      O        0.34087    0.60667    0.59996    1.000
    O18      O        0.28210    0.59893    0.69356    1.000
    O19      O        0.31827    0.51326    0.60793    1.000
    O20      O        0.25827    0.50593    0.70637    1.000
    C9       C        0.31627    0.55653    0.62483    1.000
    C10      C        0.28287    0.55193    0.67973    1.000
    O21      O        0.18627    0.43293    0.61253    1.000
    O22      O        0.18435    0.38138    0.71555    1.000
    O23      O        0.08935    0.38993    0.61755    1.000
    O24      O        0.09047    0.35439    0.72175    1.000
    C11      C        0.13917    0.40243    0.63653    1.000
    C12      C        0.13967    0.37743    0.69683    1.000
    O25      O        0.96631    0.32233    0.61013    1.000
    O26      O        0.02087    0.26866    0.64243    1.000
    O27      O        0.98417    0.20413    0.57183    1.000
    O28      O        0.92767    0.26183    0.53513    1.000
    C13      C        0.99037    0.24753    0.59863    1.000
    C14      C        0.95777    0.27953    0.57823    1.000
    O29      O        0.02048    0.40981    0.69813    1.000
    O30      O        0.96396    0.30033    0.72933    1.000
    O31      O        0.97057    0.43339    0.75693    1.000
    O32      O        0.90927    0.31843    0.79043    1.000
    C15      C        0.98167    0.39793    0.73513    1.000
    C16      C        0.94857    0.33373    0.75493    1.000
    Cr3      Cr       0.69152    0.67412    0.00404    1.000
    Mn3      Mn       0.93187    0.76224    0.99426    1.000
    O33      O        0.00753    0.94001    0.93330    1.000
    O34      O        0.94876    0.93227    0.02690    1.000
    O35      O        0.98493    0.84660    0.94127    1.000
    O36      O        0.92493    0.83927    0.03971    1.000
    C17      C        0.98293    0.88987    0.95817    1.000
    C18      C        0.94953    0.88527    0.01307    1.000
    O37      O        0.85293    0.76627    0.94587    1.000
    O38      O        0.85101    0.71472    0.04889    1.000
    O39      O        0.75601    0.72327    0.95089    1.000
    O40      O        0.75713    0.68773    0.05509    1.000
    C19      C        0.80583    0.73577    0.96987    1.000
    C20      C        0.80633    0.71077    0.03017    1.000
    O41      O        0.63297    0.65567    0.94347    1.000
    O42      O        0.68753    0.60200    0.97577    1.000
    O43      O        0.65083    0.53747    0.90517    1.000
    O44      O        0.59433    0.59517    0.86847    1.000
    C21      C        0.65703    0.58087    0.93197    1.000
    C22      C        0.62443    0.61287    0.91157    1.000
    O45      O        0.68714    0.74315    0.03147    1.000
    O46      O        0.63062    0.63367    0.06267    1.000
    O47      O        0.63723    0.76673    0.09027    1.000
    O48      O        0.57593    0.65177    0.12377    1.000
    C23      C        0.64833    0.73127    0.06847    1.000
    C24      C        0.61523    0.66707    0.08827    1.000
    Cr4      Cr       0.99255    0.35074    0.33737    1.000
    Mn4      Mn       0.90443    0.50297    0.32759    1.000
    O49      O        0.72666    0.40086    0.26663    1.000
    O50      O        0.73440    0.34983    0.36023    1.000
    O51      O        0.82007    0.47167    0.27460    1.000
    O52      O        0.82740    0.41900    0.37304    1.000
    C25      C        0.77680    0.42640    0.29150    1.000
    C26      C        0.78140    0.39760    0.34640    1.000
    O53      O        0.90040    0.42000    0.27920    1.000
    O54      O        0.95195    0.46963    0.38222    1.000
    O55      O        0.94340    0.36608    0.28422    1.000
    O56      O        0.97894    0.40274    0.38842    1.000
    C27      C        0.93090    0.40340    0.30320    1.000
    C28      C        0.95590    0.42890    0.36350    1.000
    O57      O        0.01100    0.31064    0.27680    1.000
    O58      O        0.06467    0.41887    0.30910    1.000
    O59      O        0.12920    0.44670    0.23850    1.000
    O60      O        0.07150    0.33250    0.20180    1.000
    C29      C        0.08580    0.40950    0.26530    1.000
    C30      C        0.05380    0.34490    0.24490    1.000
    O61      O        0.92352    0.27733    0.36480    1.000
    O62      O        0.03300    0.33029    0.39600    1.000
    O63      O        0.89994    0.20384    0.42360    1.000
    O64      O        0.01490    0.25750    0.45710    1.000
    C31      C        0.93540    0.25040    0.40180    1.000
    C32      C        0.99960    0.28150    0.42160    1.000
    Cr5      Cr       0.65922    0.68407    0.67070    1.000
    Mn5      Mn       0.57110    0.83630    0.66092    1.000
    O65      O        0.39333    0.73419    0.59996    1.000
    O66      O        0.40107    0.68316    0.69356    1.000
    O67      O        0.48674    0.80500    0.60793    1.000
    O68      O        0.49407    0.75233    0.70637    1.000
    C33      C        0.44347    0.75973    0.62483    1.000
    C34      C        0.44807    0.73093    0.67973    1.000
    O69      O        0.56707    0.75333    0.61253    1.000
    O70      O        0.61862    0.80296    0.71555    1.000
    O71      O        0.61007    0.69941    0.61755    1.000
    O72      O        0.64561    0.73607    0.72175    1.000
    C35      C        0.59757    0.73673    0.63653    1.000
    C36      C        0.62257    0.76223    0.69683    1.000
    O73      O        0.67767    0.64397    0.61013    1.000
    O74      O        0.73134    0.75220    0.64243    1.000
    O75      O        0.79587    0.78003    0.57183    1.000
    O76      O        0.73817    0.66583    0.53513    1.000
    C37      C        0.75247    0.74283    0.59863    1.000
    C38      C        0.72047    0.67823    0.57823    1.000
    O77      O        0.59019    0.61066    0.69813    1.000
    O78      O        0.69967    0.66362    0.72933    1.000
    O79      O        0.56661    0.53717    0.75693    1.000
    O80      O        0.68157    0.59083    0.79043    1.000
    C39      C        0.60207    0.58373    0.73513    1.000
    C40      C        0.66627    0.61483    0.75493    1.000
    Cr6      Cr       0.32588    0.01741    0.00404    1.000
    Mn6      Mn       0.23776    0.16964    0.99426    1.000
    O81      O        0.05999    0.06753    0.93330    1.000
    O82      O        0.06773    0.01650    0.02690    1.000
    O83      O        0.15340    0.13834    0.94127    1.000
    O84      O        0.16073    0.08567    0.03971    1.000
    C41      C        0.11013    0.09307    0.95817    1.000
    C42      C        0.11473    0.06427    0.01307    1.000
    O85      O        0.23373    0.08667    0.94587    1.000
    O86      O        0.28528    0.13630    0.04889    1.000
    O87      O        0.27673    0.03275    0.95089    1.000
    O88      O        0.31227    0.06941    0.05509    1.000
    C43      C        0.26423    0.07007    0.96987    1.000
    C44      C        0.28923    0.09557    0.03017    1.000
    O89      O        0.34433    0.97731    0.94347    1.000
    O90      O        0.39800    0.08554    0.97577    1.000
    O91      O        0.46253    0.11337    0.90517    1.000
    O92      O        0.40483    0.99917    0.86847    1.000
    C45      C        0.41913    0.07617    0.93197    1.000
    C46      C        0.38713    0.01157    0.91157    1.000
    O93      O        0.25685    0.94400    0.03147    1.000
    O94      O        0.36633    0.99696    0.06267    1.000
    O95      O        0.23327    0.87051    0.09027    1.000
    O96      O        0.34823    0.92417    0.12377    1.000
    C47      C        0.26873    0.91707    0.06847    1.000
    C48      C        0.33293    0.94817    0.08827    1.000
    Cr7      Cr       0.64926    0.64181    0.33737    1.000
    Mn7      Mn       0.49703    0.40146    0.32759    1.000
    O97      O        0.59914    0.32580    0.26663    1.000
    O98      O        0.65017    0.38457    0.36023    1.000
    O99      O        0.52833    0.34840    0.27460    1.000
    O100     O        0.58100    0.40840    0.37304    1.000
    C49      C        0.57360    0.35040    0.29150    1.000
    C50      C        0.60240    0.38380    0.34640    1.000
    O101     O        0.58000    0.48040    0.27920    1.000
    O102     O        0.53037    0.48232    0.38222    1.000
    O103     O        0.63392    0.57732    0.28422    1.000
    O104     O        0.59726    0.57620    0.38842    1.000
    C51      C        0.59660    0.52750    0.30320    1.000
    C52      C        0.57110    0.52700    0.36350    1.000
    O105     O        0.68936    0.70036    0.27680    1.000
    O106     O        0.58113    0.64580    0.30910    1.000
    O107     O        0.55330    0.68250    0.23850    1.000
    O108     O        0.66750    0.73900    0.20180    1.000
    C53      C        0.59050    0.67630    0.26530    1.000
    C54      C        0.65510    0.70890    0.24490    1.000
    O109     O        0.72267    0.64619    0.36480    1.000
    O110     O        0.66971    0.70271    0.39600    1.000
    O111     O        0.79616    0.69610    0.42360    1.000
    O112     O        0.74250    0.75740    0.45710    1.000
    C55      C        0.74960    0.68500    0.40180    1.000
    C56      C        0.71850    0.71810    0.42160    1.000
    Cr8      Cr       0.31593    0.97514    0.67070    1.000
    Mn8      Mn       0.16370    0.73479    0.66092    1.000
    O113     O        0.26581    0.65913    0.59996    1.000
    O114     O        0.31684    0.71790    0.69356    1.000
    O115     O        0.19500    0.68173    0.60793    1.000
    O116     O        0.24767    0.74173    0.70637    1.000
    C57      C        0.24027    0.68373    0.62483    1.000
    C58      C        0.26907    0.71713    0.67973    1.000
    O117     O        0.24667    0.81373    0.61253    1.000
    O118     O        0.19704    0.81565    0.71555    1.000
    O119     O        0.30059    0.91065    0.61755    1.000
    O120     O        0.26393    0.90953    0.72175    1.000
    C59      C        0.26327    0.86083    0.63653    1.000
    C60      C        0.23777    0.86033    0.69683    1.000
    O121     O        0.35603    0.03369    0.61013    1.000
    O122     O        0.24780    0.97913    0.64243    1.000
    O123     O        0.21997    0.01583    0.57183    1.000
    O124     O        0.33417    0.07233    0.53513    1.000
    C61      C        0.25717    0.00963    0.59863    1.000
    C62      C        0.32177    0.04223    0.57823    1.000
    O125     O        0.38934    0.97952    0.69813    1.000
    O126     O        0.33638    0.03604    0.72933    1.000
    O127     O        0.46283    0.02943    0.75693    1.000
    O128     O        0.40917    0.09073    0.79043    1.000
    C63      C        0.41627    0.01833    0.73513    1.000
    C64      C        0.38517    0.05143    0.75493    1.000
    Cr9      Cr       0.98259    0.30848    0.00404    1.000
    Mn9      Mn       0.83036    0.06813    0.99426    1.000
    O129     O        0.93247    0.99247    0.93330    1.000
    O130     O        0.98350    0.05124    0.02690    1.000
    O131     O        0.86166    0.01507    0.94127    1.000
    O132     O        0.91433    0.07507    0.03971    1.000
    C65      C        0.90693    0.01707    0.95817    1.000
    C66      C        0.93573    0.05047    0.01307    1.000
    O133     O        0.91333    0.14707    0.94587    1.000
    O134     O        0.86370    0.14899    0.04889    1.000
    O135     O        0.96725    0.24399    0.95089    1.000
    O136     O        0.93059    0.24287    0.05509    1.000
    C67      C        0.92993    0.19417    0.96987    1.000
    C68      C        0.90443    0.19367    0.03017    1.000
    O137     O        0.02269    0.36703    0.94347    1.000
    O138     O        0.91446    0.31247    0.97577    1.000
    O139     O        0.88663    0.34917    0.90517    1.000
    O140     O        0.00083    0.40567    0.86847    1.000
    C69      C        0.92383    0.34297    0.93197    1.000
    C70      C        0.98843    0.37557    0.91157    1.000
    O141     O        0.05600    0.31286    0.03147    1.000
    O142     O        0.00304    0.36938    0.06267    1.000
    O143     O        0.12949    0.36277    0.09027    1.000
    O144     O        0.07583    0.42407    0.12377    1.000
    C71      C        0.08293    0.35167    0.06847    1.000
    C72      C        0.05183    0.38477    0.08827    1.000
    Cr10     Cr       0.99255    0.64181    0.83737    1.000
    Mn10     Mn       0.90443    0.40146    0.82759    1.000
    O145     O        0.72666    0.32580    0.76663    1.000
    O146     O        0.73440    0.38457    0.86023    1.000
    O147     O        0.82007    0.34840    0.77460    1.000
    O148     O        0.82740    0.40840    0.87304    1.000
    C73      C        0.77680    0.35040    0.79150    1.000
    C74      C        0.78140    0.38380    0.84640    1.000
    O149     O        0.90040    0.48040    0.77920    1.000
    O150     O        0.95195    0.48232    0.88222    1.000
    O151     O        0.94340    0.57732    0.78422    1.000
    O152     O        0.97894    0.57620    0.88842    1.000
    C75      C        0.93090    0.52750    0.80320    1.000
    C76      C        0.95590    0.52700    0.86350    1.000
    O153     O        0.01100    0.70036    0.77680    1.000
    O154     O        0.06467    0.64580    0.80910    1.000
    O155     O        0.12920    0.68250    0.73850    1.000
    O156     O        0.07150    0.73900    0.70180    1.000
    C77      C        0.08580    0.67630    0.76530    1.000
    C78      C        0.05380    0.70890    0.74490    1.000
    O157     O        0.92352    0.64619    0.86480    1.000
    O158     O        0.03300    0.70271    0.89600    1.000
    O159     O        0.89994    0.69610    0.92360    1.000
    O160     O        0.01490    0.75740    0.95710    1.000
    C79      C        0.93540    0.68500    0.90180    1.000
    C80      C        0.99960    0.71810    0.92160    1.000
    Cr11     Cr       0.65922    0.97514    0.17070    1.000
    Mn11     Mn       0.57110    0.73479    0.16092    1.000
    O161     O        0.39333    0.65913    0.09996    1.000
    O162     O        0.40107    0.71790    0.19356    1.000
    O163     O        0.48674    0.68173    0.10793    1.000
    O164     O        0.49407    0.74173    0.20637    1.000
    C81      C        0.44347    0.68373    0.12483    1.000
    C82      C        0.44807    0.71713    0.17973    1.000
    O165     O        0.56707    0.81373    0.11253    1.000
    O166     O        0.61862    0.81565    0.21555    1.000
    O167     O        0.61007    0.91065    0.11755    1.000
    O168     O        0.64561    0.90953    0.22175    1.000
    C83      C        0.59757    0.86083    0.13653    1.000
    C84      C        0.62257    0.86033    0.19683    1.000
    O169     O        0.67767    0.03369    0.11013    1.000
    O170     O        0.73134    0.97913    0.14243    1.000
    O171     O        0.79587    0.01583    0.07183    1.000
    O172     O        0.73817    0.07233    0.03513    1.000
    C85      C        0.75247    0.00963    0.09863    1.000
    C86      C        0.72047    0.04223    0.07823    1.000
    O173     O        0.59019    0.97952    0.19813    1.000
    O174     O        0.69967    0.03604    0.22933    1.000
    O175     O        0.56661    0.02943    0.25693    1.000
    O176     O        0.68157    0.09073    0.29043    1.000
    C87      C        0.60207    0.01833    0.23513    1.000
    C88      C        0.66627    0.05143    0.25493    1.000
    Cr12     Cr       0.32588    0.30848    0.50404    1.000
    Mn12     Mn       0.23776    0.06813    0.49426    1.000
    O177     O        0.05999    0.99247    0.43330    1.000
    O178     O        0.06773    0.05124    0.52690    1.000
    O179     O        0.15340    0.01507    0.44127    1.000
    O180     O        0.16073    0.07507    0.53971    1.000
    C89      C        0.11013    0.01707    0.45817    1.000
    C90      C        0.11473    0.05047    0.51307    1.000
    O181     O        0.23373    0.14707    0.44587    1.000
    O182     O        0.28528    0.14899    0.54889    1.000
    O183     O        0.27673    0.24399    0.45089    1.000
    O184     O        0.31227    0.24287    0.55509    1.000
    C91      C        0.26423    0.19417    0.46987    1.000
    C92      C        0.28923    0.19367    0.53017    1.000
    O185     O        0.34433    0.36703    0.44347    1.000
    O186     O        0.39800    0.31247    0.47577    1.000
    O187     O        0.46253    0.34917    0.40517    1.000
    O188     O        0.40483    0.40567    0.36847    1.000
    C93      C        0.41913    0.34297    0.43197    1.000
    C94      C        0.38713    0.37557    0.41157    1.000
    O189     O        0.25685    0.31286    0.53147    1.000
    O190     O        0.36633    0.36938    0.56267    1.000
    O191     O        0.23327    0.36277    0.59027    1.000
    O192     O        0.34823    0.42407    0.62377    1.000
    C95      C        0.26873    0.35167    0.56847    1.000
    C96      C        0.33293    0.38477    0.58827    1.000
    Cr13     Cr       0.64926    0.00745    0.83737    1.000
    Mn13     Mn       0.49703    0.09557    0.82759    1.000
    O193     O        0.59914    0.27334    0.76663    1.000
    O194     O        0.65017    0.26560    0.86023    1.000
    O195     O        0.52833    0.17993    0.77460    1.000
    O196     O        0.58100    0.17260    0.87304    1.000
    C97      C        0.57360    0.22320    0.79150    1.000
    C98      C        0.60240    0.21860    0.84640    1.000
    O197     O        0.58000    0.09960    0.77920    1.000
    O198     O        0.53037    0.04805    0.88222    1.000
    O199     O        0.63392    0.05660    0.78422    1.000
    O200     O        0.59726    0.02106    0.88842    1.000
    C99      C        0.59660    0.06910    0.80320    1.000
    C100     C        0.57110    0.04410    0.86350    1.000
    O201     O        0.68936    0.98900    0.77680    1.000
    O202     O        0.58113    0.93533    0.80910    1.000
    O203     O        0.55330    0.87080    0.73850    1.000
    O204     O        0.66750    0.92850    0.70180    1.000
    C101     C        0.59050    0.91420    0.76530    1.000
    C102     C        0.65510    0.94620    0.74490    1.000
    O205     O        0.72267    0.07648    0.86480    1.000
    O206     O        0.66971    0.96700    0.89600    1.000
    O207     O        0.79616    0.10006    0.92360    1.000
    O208     O        0.74250    0.98510    0.95710    1.000
    C103     C        0.74960    0.06460    0.90180    1.000
    C104     C        0.71850    0.00040    0.92160    1.000
    Cr14     Cr       0.31593    0.34078    0.17070    1.000
    Mn14     Mn       0.16370    0.42890    0.16092    1.000
    O209     O        0.26581    0.60667    0.09996    1.000
    O210     O        0.31684    0.59893    0.19356    1.000
    O211     O        0.19500    0.51326    0.10793    1.000
    O212     O        0.24767    0.50593    0.20637    1.000
    C105     C        0.24027    0.55653    0.12483    1.000
    C106     C        0.26907    0.55193    0.17973    1.000
    O213     O        0.24667    0.43293    0.11253    1.000
    O214     O        0.19704    0.38138    0.21555    1.000
    O215     O        0.30059    0.38993    0.11755    1.000
    O216     O        0.26393    0.35439    0.22175    1.000
    C107     C        0.26327    0.40243    0.13653    1.000
    C108     C        0.23777    0.37743    0.19683    1.000
    O217     O        0.35603    0.32233    0.11013    1.000
    O218     O        0.24780    0.26866    0.14243    1.000
    O219     O        0.21997    0.20413    0.07183    1.000
    O220     O        0.33417    0.26183    0.03513    1.000
    C109     C        0.25717    0.24753    0.09863    1.000
    C110     C        0.32177    0.27953    0.07823    1.000
    O221     O        0.38934    0.40981    0.19813    1.000
    O222     O        0.33638    0.30033    0.22933    1.000
    O223     O        0.46283    0.43339    0.25693    1.000
    O224     O        0.40917    0.31843    0.29043    1.000
    C111     C        0.41627    0.39793    0.23513    1.000
    C112     C        0.38517    0.33373    0.25493    1.000
    Cr15     Cr       0.98259    0.67412    0.50404    1.000
    Mn15     Mn       0.83036    0.76224    0.49426    1.000
    O225     O        0.93247    0.94001    0.43330    1.000
    O226     O        0.98350    0.93227    0.52690    1.000
    O227     O        0.86166    0.84660    0.44127    1.000
    O228     O        0.91433    0.83927    0.53971    1.000
    C113     C        0.90693    0.88987    0.45817    1.000
    C114     C        0.93573    0.88527    0.51307    1.000
    O229     O        0.91333    0.76627    0.44587    1.000
    O230     O        0.86370    0.71472    0.54889    1.000
    O231     O        0.96725    0.72327    0.45089    1.000
    O232     O        0.93059    0.68773    0.55509    1.000
    C115     C        0.92993    0.73577    0.46987    1.000
    C116     C        0.90443    0.71077    0.53017    1.000
    O233     O        0.02269    0.65567    0.44347    1.000
    O234     O        0.91446    0.60200    0.47577    1.000
    O235     O        0.88663    0.53747    0.40517    1.000
    O236     O        0.00083    0.59517    0.36847    1.000
    C117     C        0.92383    0.58087    0.43197    1.000
    C118     C        0.98843    0.61287    0.41157    1.000
    O237     O        0.05600    0.74315    0.53147    1.000
    O238     O        0.00304    0.63367    0.56267    1.000
    O239     O        0.12949    0.76673    0.59027    1.000
    O240     O        0.07583    0.65177    0.62377    1.000
    C119     C        0.08293    0.73127    0.56847    1.000
    C120     C        0.05183    0.66707    0.58827    1.000
    Cr16     Cr       0.35819    0.35074    0.83737    1.000
    Mn16     Mn       0.59854    0.50297    0.82759    1.000
    O241     O        0.67420    0.40086    0.76663    1.000
    O242     O        0.61543    0.34983    0.86023    1.000
    O243     O        0.65160    0.47167    0.77460    1.000
    O244     O        0.59160    0.41900    0.87304    1.000
    C121     C        0.64960    0.42640    0.79150    1.000
    C122     C        0.61620    0.39760    0.84640    1.000
    O245     O        0.51960    0.42000    0.77920    1.000
    O246     O        0.51768    0.46963    0.88222    1.000
    O247     O        0.42268    0.36608    0.78422    1.000
    O248     O        0.42380    0.40274    0.88842    1.000
    C123     C        0.47250    0.40340    0.80320    1.000
    C124     C        0.47300    0.42890    0.86350    1.000
    O249     O        0.29964    0.31064    0.77680    1.000
    O250     O        0.35420    0.41887    0.80910    1.000
    O251     O        0.31750    0.44670    0.73850    1.000
    O252     O        0.26100    0.33250    0.70180    1.000
    C125     C        0.32370    0.40950    0.76530    1.000
    C126     C        0.29110    0.34490    0.74490    1.000
    O253     O        0.35381    0.27733    0.86480    1.000
    O254     O        0.29729    0.33029    0.89600    1.000
    O255     O        0.30390    0.20384    0.92360    1.000
    O256     O        0.24260    0.25750    0.95710    1.000
    C127     C        0.31500    0.25040    0.90180    1.000
    C128     C        0.28190    0.28150    0.92160    1.000
    Cr17     Cr       0.02486    0.68407    0.17070    1.000
    Mn17     Mn       0.26521    0.83630    0.16092    1.000
    O257     O        0.34087    0.73419    0.09996    1.000
    O258     O        0.28210    0.68316    0.19356    1.000
    O259     O        0.31827    0.80500    0.10793    1.000
    O260     O        0.25827    0.75233    0.20637    1.000
    C129     C        0.31627    0.75973    0.12483    1.000
    C130     C        0.28287    0.73093    0.17973    1.000
    O261     O        0.18627    0.75333    0.11253    1.000
    O262     O        0.18435    0.80296    0.21555    1.000
    O263     O        0.08935    0.69941    0.11755    1.000
    O264     O        0.09047    0.73607    0.22175    1.000
    C131     C        0.13917    0.73673    0.13653    1.000
    C132     C        0.13967    0.76223    0.19683    1.000
    O265     O        0.96631    0.64397    0.11013    1.000
    O266     O        0.02087    0.75220    0.14243    1.000
    O267     O        0.98417    0.78003    0.07183    1.000
    O268     O        0.92767    0.66583    0.03513    1.000
    C133     C        0.99037    0.74283    0.09863    1.000
    C134     C        0.95777    0.67823    0.07823    1.000
    O269     O        0.02048    0.61066    0.19813    1.000
    O270     O        0.96396    0.66362    0.22933    1.000
    O271     O        0.97057    0.53717    0.25693    1.000
    O272     O        0.90927    0.59083    0.29043    1.000
    C135     C        0.98167    0.58373    0.23513    1.000
    C136     C        0.94857    0.61483    0.25493    1.000
    Cr18     Cr       0.69152    0.01741    0.50404    1.000
    Mn18     Mn       0.93187    0.16964    0.49426    1.000
    O273     O        0.00753    0.06753    0.43330    1.000
    O274     O        0.94876    0.01650    0.52690    1.000
    O275     O        0.98493    0.13834    0.44127    1.000
    O276     O        0.92493    0.08567    0.53971    1.000
    C137     C        0.98293    0.09307    0.45817    1.000
    C138     C        0.94953    0.06427    0.51307    1.000
    O277     O        0.85293    0.08667    0.44587    1.000
    O278     O        0.85101    0.13630    0.54889    1.000
    O279     O        0.75601    0.03275    0.45089    1.000
    O280     O        0.75713    0.06941    0.55509    1.000
    C139     C        0.80583    0.07007    0.46987    1.000
    C140     C        0.80633    0.09557    0.53017    1.000
    O281     O        0.63297    0.97731    0.44347    1.000
    O282     O        0.68753    0.08554    0.47577    1.000
    O283     O        0.65083    0.11337    0.40517    1.000
    O284     O        0.59433    0.99917    0.36847    1.000
    C141     C        0.65703    0.07617    0.43197    1.000
    C142     C        0.62443    0.01157    0.41157    1.000
    O285     O        0.68714    0.94400    0.53147    1.000
    O286     O        0.63062    0.99696    0.56267    1.000
    O287     O        0.63723    0.87051    0.59027    1.000
    O288     O        0.57593    0.92417    0.62377    1.000
    C143     C        0.64833    0.91707    0.56847    1.000
    C144     C        0.61523    0.94817    0.58827    1.000
    Cr19     Cr       0.66667    0.33333    0.31186    1.000
    Cr20     Cr       0.33333    0.66667    0.64519    1.000
    Cr21     Cr       0.00000    0.00000    0.97853    1.000
    Cr22     Cr       0.66667    0.33333    0.81186    1.000
    Cr23     Cr       0.33333    0.66667    0.14519    1.000
    Cr24     Cr       0.00000    0.00000    0.47853    1.000
