# CIF file generated by openbabel 3.1.0, see https://openbabel.org
data_I
_chemical_name_common 'ZOTKAW_clean'
_cell_length_a 10.013
_cell_length_b 13.138
_cell_length_c 33.947
_cell_angle_alpha 90
_cell_angle_beta 90
_cell_angle_gamma 90
_space_group_name_H-M_alt 'P 1'
_space_group_name_Hall 'P 1'
loop_
    _symmetry_equiv_pos_as_xyz
    x,y,z
loop_
    _atom_site_label
    _atom_site_type_symbol
    _atom_site_fract_x
    _atom_site_fract_y
    _atom_site_fract_z
    _atom_site_occupancy
    Er1      Er       0.46809    0.75000    0.75000    1.000
    Er2      Er       0.53191    0.25000    0.25000    1.000
    Er3      Er       0.03191    0.25000    0.25000    1.000
    Er4      Er       0.96809    0.75000    0.75000    1.000
    H1       H        0.48960    0.64970    0.58040    1.000
    H2       H        0.94720    0.58660    0.42270    1.000
    H3       H        0.76010    0.61170    0.64930    1.000
    H4       H        0.97860    0.60660    0.49000    1.000
    H5       H        0.63890    0.71900    0.10830    1.000
    H6       H        0.17810    0.94720    0.58950    1.000
    H7       H        0.00710    0.10330    0.59210    1.000
    H8       H        0.52140    0.10660    0.51000    1.000
    H9       H        0.47860    0.60660    0.01000    1.000
    H10      H        0.55280    0.08660    0.57730    1.000
    H11      H        0.94720    0.91340    0.07730    1.000
    H12      H        0.54860    0.82830    0.62500    1.000
    H13      H        0.04860    0.82830    0.87500    1.000
    H14      H        0.55420    0.84320    0.33270    1.000
    H15      H        0.49290    0.60330    0.40790    1.000
    H16      H        0.02140    0.10660    0.99000    1.000
    H17      H        0.73150    0.91590    0.10370    1.000
    H18      H        0.54860    0.67170    0.87500    1.000
    H19      H        0.55360    0.33480    0.35220    1.000
    H20      H        0.25560    0.37150    0.00570    1.000
    H21      H        0.32190    0.05280    0.08950    1.000
    H22      H        0.94640    0.66520    0.85220    1.000
    H23      H        0.40710    0.15520    0.44170    1.000
    H24      H        0.48960    0.85030    0.91960    1.000
    H25      H        0.20240    0.13120    0.03180    1.000
    H26      H        0.70240    0.36880    0.03180    1.000
    H27      H        0.05420    0.84320    0.16730    1.000
    H28      H        0.55420    0.65680    0.16730    1.000
    H29      H        0.55360    0.16520    0.14780    1.000
    H30      H        0.05420    0.65680    0.33270    1.000
    H31      H        0.90710    0.15520    0.05830    1.000
    H32      H        0.23990    0.11170    0.14930    1.000
    H33      H        0.76010    0.88830    0.85070    1.000
    H34      H        0.26850    0.41590    0.60370    1.000
    H35      H        0.26010    0.61170    0.85070    1.000
    H36      H        0.13890    0.78100    0.10830    1.000
    H37      H        0.59290    0.65520    0.94170    1.000
    H38      H        0.09290    0.65520    0.55830    1.000
    H39      H        0.97860    0.89340    0.01000    1.000
    H40      H        0.09290    0.84480    0.94170    1.000
    H41      H        0.51040    0.35030    0.41960    1.000
    H42      H        0.90710    0.34480    0.44170    1.000
    H43      H        0.51040    0.14970    0.08040    1.000
    H44      H        0.75560    0.37150    0.49430    1.000
    H45      H        0.36110    0.28100    0.89170    1.000
    H46      H        0.24440    0.87150    0.99430    1.000
    H47      H        0.44720    0.91340    0.42270    1.000
    H48      H        0.17810    0.55280    0.91050    1.000
    H49      H        0.29760    0.63120    0.96820    1.000
    H50      H        0.49290    0.89670    0.09210    1.000
    H51      H        0.47860    0.89340    0.49000    1.000
    H52      H        0.52140    0.39340    0.99000    1.000
    H53      H        0.00710    0.39670    0.90790    1.000
    H54      H        0.24440    0.62850    0.50570    1.000
    H55      H        0.04860    0.67170    0.62500    1.000
    H56      H        0.95140    0.17170    0.12500    1.000
    H57      H        0.01040    0.35030    0.08040    1.000
    H58      H        0.74440    0.87150    0.50570    1.000
    H59      H        0.44720    0.58660    0.07730    1.000
    H60      H        0.95140    0.32830    0.37500    1.000
    H61      H        0.76850    0.41590    0.89630    1.000
    H62      H        0.94580    0.15680    0.83270    1.000
    H63      H        0.50710    0.10330    0.90790    1.000
    H64      H        0.94640    0.83480    0.64780    1.000
    H65      H        0.26010    0.88830    0.64930    1.000
    H66      H        0.59290    0.84480    0.55830    1.000
    H67      H        0.02140    0.39340    0.51000    1.000
    H68      H        0.32190    0.44720    0.41050    1.000
    H69      H        0.98960    0.85030    0.58040    1.000
    H70      H        0.86110    0.21900    0.89170    1.000
    H71      H        0.50710    0.39670    0.59210    1.000
    H72      H        0.13890    0.71900    0.39170    1.000
    H73      H        0.79760    0.86880    0.96820    1.000
    H74      H        0.26850    0.08410    0.89630    1.000
    H75      H        0.29760    0.86880    0.53180    1.000
    H76      H        0.25560    0.12850    0.49430    1.000
    H77      H        0.23990    0.38830    0.35070    1.000
    H78      H        0.79760    0.63120    0.53180    1.000
    H79      H        0.99290    0.60330    0.09210    1.000
    H80      H        0.82190    0.05280    0.41050    1.000
    H81      H        0.73990    0.38830    0.14930    1.000
    H82      H        0.86110    0.28100    0.60830    1.000
    H83      H        0.44640    0.83480    0.85220    1.000
    H84      H        0.75560    0.12850    0.00570    1.000
    H85      H        0.74440    0.62850    0.99430    1.000
    H86      H        0.45140    0.32830    0.12500    1.000
    H87      H        0.44640    0.66520    0.64780    1.000
    H88      H        0.20240    0.36880    0.46820    1.000
    H89      H        0.23150    0.91590    0.39630    1.000
    H90      H        0.05360    0.33480    0.14780    1.000
    H91      H        0.23150    0.58410    0.10370    1.000
    H92      H        0.98960    0.64970    0.91960    1.000
    H93      H        0.44580    0.34320    0.83270    1.000
    H94      H        0.05280    0.41340    0.57730    1.000
    H95      H        0.40710    0.34480    0.05830    1.000
    H96      H        0.67810    0.94720    0.91050    1.000
    H97      H        0.45140    0.17170    0.37500    1.000
    H98      H        0.63890    0.78100    0.39170    1.000
    H99      H        0.67810    0.55280    0.58950    1.000
    H100     H        0.05360    0.16520    0.35220    1.000
    H101     H        0.82190    0.44720    0.08950    1.000
    H102     H        0.99290    0.89670    0.40790    1.000
    H103     H        0.76850    0.08410    0.60370    1.000
    H104     H        0.73150    0.58410    0.39630    1.000
    H105     H        0.36110    0.21900    0.60830    1.000
    H106     H        0.01040    0.14970    0.41960    1.000
    H107     H        0.55280    0.41340    0.92270    1.000
    H108     H        0.94580    0.34320    0.66730    1.000
    H109     H        0.73990    0.11170    0.35070    1.000
    H110     H        0.44580    0.15680    0.66730    1.000
    H111     H        0.70240    0.13120    0.46820    1.000
    H112     H        0.05280    0.08660    0.92270    1.000
    C1       C        0.36170    0.16740    0.38392    1.000
    C2       C        0.12580    0.33620    0.12960    1.000
    C3       C        0.66480    0.65750    0.92346    1.000
    C4       C        0.65810    0.65120    0.11623    1.000
    C5       C        0.39970    0.88010    0.04264    1.000
    C6       C        0.13560    0.60810    0.05144    1.000
    C7       C        0.71860    0.45530    0.14082    1.000
    C8       C        0.36170    0.33260    0.11608    1.000
    C9       C        0.60030    0.38010    0.54264    1.000
    C10      C        0.15250    0.87880    0.48896    1.000
    C11      C        0.62580    0.33620    0.37040    1.000
    C12      C        0.91890    0.97790    0.79779    1.000
    C13      C        0.25580    0.32870    0.14331    1.000
    C14      C        0.89970    0.61990    0.04264    1.000
    C15      C        0.36440    0.10810    0.94856    1.000
    C16      C        0.86050    0.01670    0.83563    1.000
    C17      C        0.28340    0.62150    0.99560    1.000
    C18      C        0.89060    0.38560    0.65148    1.000
    C19      C        0.58110    0.02210    0.29779    1.000
    C20      C        0.86170    0.33260    0.38392    1.000
    C21      C        0.36440    0.39190    0.55144    1.000
    C22      C        0.24420    0.82870    0.85669    1.000
    C23      C        0.10930    0.39250    0.52050    1.000
    C24      C        0.73290    0.99010    0.89480    1.000
    C25      C        0.76390    0.41190    0.59217    1.000
    C26      C        0.78140    0.95530    0.85918    1.000
    C27      C        0.79590    0.84930    0.56282    1.000
    C28      C        0.87210    0.90520    0.06050    1.000
    C29      C        0.28140    0.54470    0.85918    1.000
    C30      C        0.42750    0.86850    0.00006    1.000
    C31      C        0.71860    0.04470    0.35918    1.000
    C32      C        0.13950    0.98330    0.16437    1.000
    C33      C        0.07250    0.36850    0.99994    1.000
    C34      C        0.39070    0.60750    0.02050    1.000
    C35      C        0.39070    0.89250    0.47950    1.000
    C36      C        0.33520    0.34250    0.07654    1.000
    C37      C        0.28490    0.31030    0.18595    1.000
    C38      C        0.63950    0.51670    0.16437    1.000
    C39      C        0.60940    0.61440    0.15148    1.000
    C40      C        0.16480    0.65750    0.57654    1.000
    C41      C        0.26710    0.49010    0.39480    1.000
    C42      C        0.37420    0.83620    0.87040    1.000
    C43      C        0.84750    0.37880    0.98896    1.000
    C44      C        0.25580    0.17130    0.35669    1.000
    C45      C        0.25550    0.09410    0.92370    1.000
    C46      C        0.63560    0.60810    0.44856    1.000
    C47      C        0.16480    0.84250    0.92346    1.000
    C48      C        0.84190    0.34880    0.61623    1.000
    C49      C        0.71660    0.12150    0.49560    1.000
    C50      C        0.70410    0.15070    0.06282    1.000
    C51      C        0.42750    0.63150    0.49994    1.000
    C52      C        0.40010    0.84600    0.91055    1.000
    C53      C        0.08110    0.02210    0.20221    1.000
    C54      C        0.23610    0.58810    0.40783    1.000
    C55      C        0.78490    0.31030    0.31405    1.000
    C56      C        0.09990    0.34600    0.08945    1.000
    C57      C        0.59990    0.34600    0.41055    1.000
    C58      C        0.75580    0.17130    0.14331    1.000
    C59      C        0.78140    0.54470    0.64082    1.000
    C60      C        0.87420    0.66380    0.87040    1.000
    C61      C        0.78490    0.18970    0.18595    1.000
    C62      C        0.28490    0.18970    0.31405    1.000
    C63      C        0.84750    0.12120    0.51104    1.000
    C64      C        0.23290    0.50990    0.89480    1.000
    C65      C        0.21860    0.45530    0.35918    1.000
    C66      C        0.65250    0.87880    0.01104    1.000
    C67      C        0.63830    0.83260    0.61608    1.000
    C68      C        0.76710    0.00990    0.39480    1.000
    C69      C        0.40010    0.65400    0.58945    1.000
    C70      C        0.23290    0.99010    0.60520    1.000
    C71      C        0.87420    0.83620    0.62960    1.000
    C72      C        0.10940    0.88560    0.15148    1.000
    C73      C        0.24420    0.67130    0.64331    1.000
    C74      C        0.21660    0.12150    0.00440    1.000
    C75      C        0.60940    0.88560    0.34852    1.000
    C76      C        0.86440    0.39190    0.94856    1.000
    C77      C        0.78340    0.87850    0.99560    1.000
    C78      C        0.26390    0.08810    0.59217    1.000
    C79      C        0.71510    0.81030    0.68595    1.000
    C80      C        0.41890    0.52210    0.79779    1.000
    C81      C        0.37210    0.90520    0.43950    1.000
    C82      C        0.84190    0.15120    0.88377    1.000
    C83      C        0.62790    0.09480    0.56050    1.000
    C84      C        0.65810    0.84880    0.38377    1.000
    C85      C        0.73290    0.50990    0.60520    1.000
    C86      C        0.90010    0.84600    0.58945    1.000
    C87      C        0.74450    0.90590    0.07630    1.000
    C88      C        0.29590    0.65070    0.56282    1.000
    C89      C        0.75580    0.32870    0.35669    1.000
    C90      C        0.71510    0.68970    0.81405    1.000
    C91      C        0.39060    0.38560    0.84852    1.000
    C92      C        0.63950    0.98330    0.33563    1.000
    C93      C        0.13830    0.66740    0.61608    1.000
    C94      C        0.12790    0.09480    0.93950    1.000
    C95      C        0.08110    0.47790    0.29779    1.000
    C96      C        0.26710    0.00990    0.10520    1.000
    C97      C        0.23610    0.91190    0.09217    1.000
    C98      C        0.58110    0.47790    0.20221    1.000
    C99      C        0.28140    0.95530    0.64082    1.000
    C100     C        0.78340    0.62150    0.50440    1.000
    C101     C        0.34190    0.34880    0.88377    1.000
    C102     C        0.62580    0.16380    0.12960    1.000
    C103     C        0.83520    0.34250    0.42346    1.000
    C104     C        0.86170    0.16740    0.11608    1.000
    C105     C        0.21660    0.37850    0.49560    1.000
    C106     C        0.10030    0.11990    0.54264    1.000
    C107     C        0.92750    0.63150    0.00006    1.000
    C108     C        0.60930    0.39250    0.97950    1.000
    C109     C        0.21510    0.68970    0.68595    1.000
    C110     C        0.15810    0.84880    0.11623    1.000
    C111     C        0.28340    0.87850    0.50440    1.000
    C112     C        0.59990    0.15400    0.08945    1.000
    C113     C        0.36050    0.01670    0.66437    1.000
    C114     C        0.63830    0.66740    0.88392    1.000
    C115     C        0.20410    0.15070    0.43718    1.000
    C116     C        0.39970    0.61990    0.45736    1.000
    C117     C        0.10930    0.10750    0.97950    1.000
    C118     C        0.76390    0.08810    0.90783    1.000
    C119     C        0.34190    0.15120    0.61623    1.000
    C120     C        0.34750    0.37880    0.51104    1.000
    C121     C        0.10030    0.38010    0.95736    1.000
    C122     C        0.57250    0.13150    0.99994    1.000
    C123     C        0.70410    0.34930    0.43718    1.000
    C124     C        0.24450    0.90590    0.42370    1.000
    C125     C        0.71660    0.37850    0.00440    1.000
    C126     C        0.41890    0.97790    0.70221    1.000
    C127     C        0.39060    0.11440    0.65148    1.000
    C128     C        0.89070    0.89250    0.02050    1.000
    C129     C        0.21860    0.04470    0.14082    1.000
    C130     C        0.91890    0.52210    0.70221    1.000
    C131     C        0.13950    0.51670    0.33563    1.000
    C132     C        0.10940    0.61440    0.34852    1.000
    C133     C        0.26390    0.41190    0.90783    1.000
    C134     C        0.65250    0.62120    0.48896    1.000
    C135     C        0.15810    0.65120    0.38377    1.000
    C136     C        0.83520    0.15750    0.07654    1.000
    C137     C        0.86440    0.10810    0.55144    1.000
    C138     C        0.15250    0.62120    0.01104    1.000
    C139     C        0.60030    0.11990    0.95736    1.000
    C140     C        0.13560    0.89190    0.44856    1.000
    C141     C        0.36050    0.48330    0.83563    1.000
    C142     C        0.75550    0.09410    0.57630    1.000
    C143     C        0.89060    0.11440    0.84852    1.000
    C144     C        0.33520    0.15750    0.42346    1.000
    C145     C        0.12790    0.40520    0.56050    1.000
    C146     C        0.66480    0.84250    0.57654    1.000
    C147     C        0.20410    0.34930    0.06282    1.000
    C148     C        0.24450    0.59410    0.07630    1.000
    C149     C        0.90010    0.65400    0.91055    1.000
    C150     C        0.92750    0.86850    0.49994    1.000
    C151     C        0.60930    0.10750    0.52050    1.000
    C152     C        0.87210    0.59480    0.43950    1.000
    C153     C        0.62790    0.40520    0.93950    1.000
    C154     C        0.76710    0.49010    0.10520    1.000
    C155     C        0.25550    0.40590    0.57630    1.000
    C156     C        0.37420    0.66380    0.62960    1.000
    C157     C        0.13830    0.83260    0.88392    1.000
    C158     C        0.37210    0.59480    0.06050    1.000
    C159     C        0.63560    0.89190    0.05144    1.000
    C160     C        0.74420    0.67130    0.85669    1.000
    C161     C        0.79590    0.65070    0.93718    1.000
    C162     C        0.86050    0.48330    0.66437    1.000
    C163     C        0.21510    0.81030    0.81405    1.000
    C164     C        0.12580    0.16380    0.37040    1.000
    C165     C        0.34750    0.12120    0.98896    1.000
    C166     C        0.73610    0.91190    0.40783    1.000
    C167     C        0.89970    0.88010    0.45736    1.000
    C168     C        0.75550    0.40590    0.92370    1.000
    C169     C        0.07250    0.13150    0.50006    1.000
    C170     C        0.09990    0.15400    0.41055    1.000
    C171     C        0.29590    0.84930    0.93718    1.000
    C172     C        0.74450    0.59410    0.42370    1.000
    C173     C        0.57250    0.36850    0.50006    1.000
    C174     C        0.89070    0.60750    0.47950    1.000
    C175     C        0.74420    0.82870    0.64331    1.000
    C176     C        0.73610    0.58810    0.09217    1.000
    N1       N        0.49450    0.10940    0.93349    1.000
    N2       N        0.26900    0.60410    0.44680    1.000
    N3       N        0.45350    0.36710    0.48493    1.000
    N4       N        0.50550    0.60940    0.43349    1.000
    N5       N        0.31420    0.63930    0.52188    1.000
    N6       N        0.68580    0.13930    0.02188    1.000
    N7       N        0.04650    0.86710    0.51507    1.000
    N8       N        0.26900    0.89590    0.05320    1.000
    N9       N        0.81420    0.63930    0.97812    1.000
    N10      N        0.18580    0.36070    0.02188    1.000
    N11      N        0.00550    0.89060    0.43349    1.000
    N12      N        0.23100    0.10410    0.55320    1.000
    N13      N        0.73100    0.39590    0.55320    1.000
    N14      N        0.68580    0.36070    0.47812    1.000
    N15      N        0.73100    0.10410    0.94680    1.000
    N16      N        0.99450    0.10940    0.56651    1.000
    N17      N        0.54650    0.86710    0.98493    1.000
    N18      N        0.23100    0.39590    0.94680    1.000
    N19      N        0.76900    0.60410    0.05320    1.000
    N20      N        0.31420    0.86070    0.97812    1.000
    N21      N        0.00550    0.60940    0.06651    1.000
    N22      N        0.81420    0.86070    0.52188    1.000
    N23      N        0.54650    0.63290    0.51507    1.000
    N24      N        0.95350    0.13290    0.48493    1.000
    N25      N        0.04650    0.63290    0.98493    1.000
    N26      N        0.99450    0.39060    0.93349    1.000
    N27      N        0.45350    0.13290    0.01507    1.000
    N28      N        0.18580    0.13930    0.47812    1.000
    N29      N        0.49450    0.39060    0.56651    1.000
    N30      N        0.50550    0.89060    0.06651    1.000
    N31      N        0.76900    0.89590    0.44680    1.000
    N32      N        0.95350    0.36710    0.01507    1.000
    O1       O        0.09890    0.79090    0.80406    1.000
    O2       O        0.36920    0.89650    0.71638    1.000
    O3       O        0.48600    0.52570    0.21693    1.000
    O4       O        0.90110    0.29090    0.30406    1.000
    O5       O        0.59890    0.70910    0.80406    1.000
    O6       O        0.81180    0.81590    0.70961    1.000
    O7       O        0.13080    0.39650    0.28362    1.000
    O8       O        0.51400    0.02570    0.71693    1.000
    O9       O        0.31180    0.68410    0.70961    1.000
    O10      O        0.98600    0.52570    0.28307    1.000
    O11      O        0.36920    0.60350    0.78362    1.000
    O12      O        0.13080    0.10350    0.21638    1.000
    O13      O        0.48600    0.97430    0.28307    1.000
    O14      O        0.01400    0.47430    0.71693    1.000
    O15      O        0.40110    0.29090    0.19594    1.000
    O16      O        0.86920    0.60350    0.71638    1.000
    O17      O        0.63080    0.39650    0.21638    1.000
    O18      O        0.98600    0.97430    0.21693    1.000
    O19      O        0.68820    0.18410    0.20961    1.000
    O20      O        0.09890    0.70910    0.69594    1.000
    O21      O        0.68820    0.31590    0.29039    1.000
    O22      O        0.63080    0.10350    0.28362    1.000
    O23      O        0.86920    0.89650    0.78362    1.000
    O24      O        0.18820    0.18410    0.29039    1.000
    O25      O        0.81180    0.68410    0.79039    1.000
    O26      O        0.40110    0.20910    0.30406    1.000
    O27      O        0.31180    0.81590    0.79039    1.000
    O28      O        0.01400    0.02570    0.78307    1.000
    O29      O        0.51400    0.47430    0.78307    1.000
    O30      O        0.59890    0.79090    0.69594    1.000
    O31      O        0.90110    0.20910    0.19594    1.000
    O32      O        0.18820    0.31590    0.20961    1.000
