# CIF file generated by openbabel 3.1.0, see https://openbabel.org
data_I
_chemical_name_common 'image0'
_cell_length_a 7.2389
_cell_length_b 22.164
_cell_length_c 10.633
_cell_angle_alpha 90
_cell_angle_beta 90.8
_cell_angle_gamma 90
_space_group_name_H-M_alt 'P 1'
_space_group_name_Hall 'P 1'
loop_
    _symmetry_equiv_pos_as_xyz
    x,y,z
loop_
    _atom_site_label
    _atom_site_type_symbol
    _atom_site_fract_x
    _atom_site_fract_y
    _atom_site_fract_z
    _atom_site_occupancy
    Ho1      Ho       0.26317    0.25037    0.84882    1.000
    Sb1      Sb       0.45267    0.99257    0.13905    1.000
    Sb2      Sb       0.57508    0.48219    0.59598    1.000
    N1       N        0.19010    0.05100    0.12990    1.000
    N2       N        0.21990    0.92270    0.16660    1.000
    N3       N        0.80850    0.41190    0.63260    1.000
    N4       N        0.83930    0.54130    0.59450    1.000
    O1       O        0.37080    0.01190    0.33580    1.000
    O2       O        0.25660    0.08390    0.45890    1.000
    O3       O        0.51230    0.08880    0.03720    1.000
    O4       O        0.38200    0.15950    0.91650    1.000
    O5       O        0.57320    0.88740    0.18930    1.000
    O6       O        0.50270    0.80340    0.29660    1.000
    O7       O        0.36150    0.97290    0.95400    1.000
    O8       O        0.22000    0.90780    0.82530    1.000
    O9       O        0.45280    0.37760    0.65490    1.000
    O10      O        0.52210    0.30120    0.78450    1.000
    O11      O        0.68000    0.46260    0.41420    1.000
    O12      O        0.82480    0.39700    0.29190    1.000
    O13      O        0.64810    0.50130    0.79460    1.000
    O14      O        0.76850    0.57010    0.92410    1.000
    O15      O        0.51710    0.57930    0.49500    1.000
    O16      O        0.64560    0.65550    0.39270    1.000
    C1       C        0.19680    0.09160    0.24140    1.000
    H1       H        0.27150    0.12770    0.22150    1.000
    H2       H        0.07010    0.10530    0.26070    1.000
    C2       C        0.27880    0.06070    0.35480    1.000
    C3       C        0.18560    0.08810    0.01230    1.000
    H3       H        0.09420    0.12100    0.02100    1.000
    H4       H        0.14680    0.06260    0.94030    1.000
    C4       C        0.37190    0.11450    0.98770    1.000
    C5       C        0.02830    0.00900    0.12850    1.000
    H5       H        0.00500    0.99560    0.04090    1.000
    H6       H        0.91790    0.03150    0.15600    1.000
    C6       C        0.05010    0.95520    0.20860    1.000
    H7       H        0.06350    0.96720    0.29800    1.000
    H8       H        0.94060    0.92870    0.19980    1.000
    C7       C        0.26870    0.87790    0.26610    1.000
    H9       H        0.26130    0.89730    0.34980    1.000
    H10      H        0.17940    0.84410    0.26340    1.000
    C8       C        0.46340    0.85370    0.24700    1.000
    C9       C        0.19090    0.89090    0.04400    1.000
    H11      H        0.25460    0.85140    0.04790    1.000
    H12      H        0.05720    0.88300    0.03200    1.000
    C10      C        0.25950    0.92520    0.93190    1.000
    C11      C        0.75990    0.36890    0.73340    1.000
    H13      H        0.77900    0.38860    0.81610    1.000
    H14      H        0.84350    0.33360    0.72970    1.000
    C12      C        0.56240    0.34750    0.72260    1.000
    C13      C        0.83520    0.37910    0.51310    1.000
    H15      H        0.76210    0.34140    0.51510    1.000
    H16      H        0.96700    0.36780    0.50680    1.000
    C14      C        0.77960    0.41480    0.39560    1.000
    C15      C        0.97700    0.44660    0.67120    1.000
    H17      H        0.96630    0.45840    0.76060    1.000
    H18      H        0.08670    0.42020    0.66390    1.000
    C16      C        0.00490    0.50180    0.59370    1.000
    H19      H        0.11280    0.52440    0.62690    1.000
    H20      H        0.03150    0.48980    0.50600    1.000
    C17      C        0.83720    0.58010    0.70890    1.000
    H21      H        0.76830    0.61760    0.68970    1.000
    H22      H        0.96560    0.59140    0.73200    1.000
    C18      C        0.74910    0.54880    0.81920    1.000
    C19      C        0.84650    0.58040    0.48310    1.000
    H23      H        0.88610    0.55650    0.40950    1.000
    H24      H        0.93810    0.61290    0.49750    1.000
    C20      C        0.65480    0.60830    0.45570    1.000
    Ho2      Ho       0.76317    0.74963    0.34882    1.000
    Sb3      Sb       0.95267    0.00743    0.63905    1.000
    Sb4      Sb       0.07508    0.51780    0.09598    1.000
    N5       N        0.69010    0.94900    0.62990    1.000
    N6       N        0.71990    0.07730    0.66660    1.000
    N7       N        0.30850    0.58810    0.13260    1.000
    N8       N        0.33930    0.45870    0.09450    1.000
    O17      O        0.87080    0.98810    0.83580    1.000
    O18      O        0.75660    0.91610    0.95890    1.000
    O19      O        0.01230    0.91120    0.53720    1.000
    O20      O        0.88200    0.84050    0.41650    1.000
    O21      O        0.07320    0.11260    0.68930    1.000
    O22      O        0.00270    0.19660    0.79660    1.000
    O23      O        0.86150    0.02710    0.45400    1.000
    O24      O        0.72000    0.09220    0.32530    1.000
    O25      O        0.95280    0.62240    0.15490    1.000
    O26      O        0.02210    0.69880    0.28450    1.000
    O27      O        0.18000    0.53740    0.91420    1.000
    O28      O        0.32480    0.60300    0.79190    1.000
    O29      O        0.14810    0.49870    0.29460    1.000
    O30      O        0.26850    0.42990    0.42410    1.000
    O31      O        0.01710    0.42070    0.99500    1.000
    O32      O        0.14560    0.34450    0.89270    1.000
    C21      C        0.69680    0.90840    0.74140    1.000
    H25      H        0.77150    0.87230    0.72150    1.000
    H26      H        0.57010    0.89470    0.76070    1.000
    C22      C        0.77880    0.93930    0.85480    1.000
    C23      C        0.68560    0.91190    0.51230    1.000
    H27      H        0.59420    0.87900    0.52100    1.000
    H28      H        0.64680    0.93740    0.44030    1.000
    C24      C        0.87190    0.88550    0.48770    1.000
    C25      C        0.52830    0.99100    0.62850    1.000
    H29      H        0.50500    0.00440    0.54090    1.000
    H30      H        0.41790    0.96850    0.65600    1.000
    C26      C        0.55010    0.04480    0.70860    1.000
    H31      H        0.56350    0.03280    0.79800    1.000
    H32      H        0.44060    0.07130    0.69980    1.000
    C27      C        0.76870    0.12210    0.76610    1.000
    H33      H        0.76130    0.10270    0.84980    1.000
    H34      H        0.67940    0.15590    0.76340    1.000
    C28      C        0.96340    0.14630    0.74700    1.000
    C29      C        0.69090    0.10910    0.54400    1.000
    H35      H        0.75460    0.14860    0.54790    1.000
    H36      H        0.55720    0.11700    0.53200    1.000
    C30      C        0.75950    0.07480    0.43190    1.000
    C31      C        0.25990    0.63110    0.23340    1.000
    H37      H        0.27900    0.61140    0.31610    1.000
    H38      H        0.34350    0.66640    0.22970    1.000
    C32      C        0.06240    0.65250    0.22260    1.000
    C33      C        0.33520    0.62090    0.01310    1.000
    H39      H        0.26210    0.65860    0.01510    1.000
    H40      H        0.46700    0.63220    0.00680    1.000
    C34      C        0.27960    0.58520    0.89560    1.000
    C35      C        0.47700    0.55340    0.17120    1.000
    H41      H        0.46630    0.54160    0.26060    1.000
    H42      H        0.58670    0.57980    0.16390    1.000
    C36      C        0.50490    0.49820    0.09370    1.000
    H43      H        0.61280    0.47560    0.12690    1.000
    H44      H        0.53150    0.51020    0.00600    1.000
    C37      C        0.33720    0.41990    0.20890    1.000
    H45      H        0.26830    0.38240    0.18970    1.000
    H46      H        0.46560    0.40860    0.23200    1.000
    C38      C        0.24910    0.45120    0.31920    1.000
    C39      C        0.34650    0.41960    0.98310    1.000
    H47      H        0.38610    0.44350    0.90950    1.000
    H48      H        0.43810    0.38710    0.99750    1.000
    C40      C        0.15480    0.39170    0.95570    1.000
