# CIF file generated by openbabel 3.1.0, see https://openbabel.org
data_I
_chemical_name_common 'KEXPOU_clean'
_cell_length_a 7.249
_cell_length_b 7.419
_cell_length_c 23.93
_cell_angle_alpha 90
_cell_angle_beta 90
_cell_angle_gamma 90.37
_space_group_name_H-M_alt 'P 1'
_space_group_name_Hall 'P 1'
loop_
    _symmetry_equiv_pos_as_xyz
    x,y,z
loop_
    _atom_site_label
    _atom_site_type_symbol
    _atom_site_fract_x
    _atom_site_fract_y
    _atom_site_fract_z
    _atom_site_occupancy
    Zn1      Zn       0.42856    0.42295    0.78196    1.000
    Zn2      Zn       0.07144    0.07705    0.28196    1.000
    Zn3      Zn       0.57144    0.57705    0.21804    1.000
    Zn4      Zn       0.92856    0.92295    0.71804    1.000
    H1       H        0.42710    0.50290    0.64900    1.000
    H2       H        0.42980    0.70670    0.62680    1.000
    H3       H        0.38010    0.60890    0.98490    1.000
    H4       H        0.39230    0.41950    0.90860    1.000
    H5       H        0.45170    0.83090    0.80650    1.000
    H6       H        0.44160    0.03290    0.87990    1.000
    H7       H        0.33530    0.08120    0.97970    1.000
    H8       H        0.33900    0.91380    0.02180    1.000
    H9       H        0.07290    0.99710    0.14900    1.000
    H10      H        0.07020    0.79330    0.12680    1.000
    H11      H        0.11990    0.89110    0.48490    1.000
    H12      H        0.10770    0.08050    0.40860    1.000
    H13      H        0.04830    0.66910    0.30650    1.000
    H14      H        0.05840    0.46710    0.37990    1.000
    H15      H        0.16470    0.41880    0.47970    1.000
    H16      H        0.16100    0.58620    0.52180    1.000
    H17      H        0.57290    0.49710    0.35100    1.000
    H18      H        0.57020    0.29330    0.37320    1.000
    H19      H        0.61990    0.39110    0.01510    1.000
    H20      H        0.60770    0.58050    0.09140    1.000
    H21      H        0.54830    0.16910    0.19350    1.000
    H22      H        0.55840    0.96710    0.12010    1.000
    H23      H        0.66470    0.91880    0.02030    1.000
    H24      H        0.66100    0.08620    0.97820    1.000
    H25      H        0.92710    0.00290    0.85100    1.000
    H26      H        0.92980    0.20670    0.87320    1.000
    H27      H        0.88010    0.10890    0.51510    1.000
    H28      H        0.89230    0.91950    0.59140    1.000
    H29      H        0.95170    0.33090    0.69350    1.000
    H30      H        0.94160    0.53290    0.62010    1.000
    H31      H        0.83530    0.58120    0.52030    1.000
    H32      H        0.83900    0.41380    0.47820    1.000
    C1       C        0.60150    0.66860    0.69511    1.000
    C2       C        0.42840    0.63080    0.66081    1.000
    C3       C        0.25480    0.67020    0.69464    1.000
    C4       C        0.39540    0.65830    0.94850    1.000
    C5       C        0.40280    0.54580    0.90271    1.000
    C6       C        0.43740    0.78540    0.84333    1.000
    C7       C        0.43140    0.90720    0.88700    1.000
    C8       C        0.41020    0.84440    0.94153    1.000
    C9       C        0.40510    0.97230    0.99042    1.000
    C10      C        0.89850    0.83140    0.19511    1.000
    C11      C        0.07160    0.86920    0.16081    1.000
    C12      C        0.24520    0.82980    0.19464    1.000
    C13      C        0.10460    0.84170    0.44850    1.000
    C14      C        0.09720    0.95420    0.40271    1.000
    C15      C        0.06260    0.71460    0.34333    1.000
    C16      C        0.06860    0.59280    0.38700    1.000
    C17      C        0.08980    0.65560    0.44153    1.000
    C18      C        0.09490    0.52770    0.49042    1.000
    C19      C        0.39850    0.33140    0.30489    1.000
    C20      C        0.57160    0.36920    0.33919    1.000
    C21      C        0.74520    0.32980    0.30536    1.000
    C22      C        0.60460    0.34170    0.05150    1.000
    C23      C        0.59720    0.45420    0.09729    1.000
    C24      C        0.56260    0.21460    0.15667    1.000
    C25      C        0.56860    0.09280    0.11300    1.000
    C26      C        0.58980    0.15560    0.05847    1.000
    C27      C        0.59490    0.02770    0.00958    1.000
    C28      C        0.10150    0.16860    0.80489    1.000
    C29      C        0.92840    0.13080    0.83919    1.000
    C30      C        0.75480    0.17020    0.80536    1.000
    C31      C        0.89540    0.15830    0.55150    1.000
    C32      C        0.90280    0.04580    0.59729    1.000
    C33      C        0.93740    0.28540    0.65667    1.000
    C34      C        0.93140    0.40720    0.61300    1.000
    C35      C        0.91020    0.34440    0.55847    1.000
    C36      C        0.90510    0.47230    0.50958    1.000
    N1       N        0.42400    0.60620    0.85030    1.000
    N2       N        0.07600    0.89380    0.35030    1.000
    N3       N        0.57600    0.39380    0.14970    1.000
    N4       N        0.92400    0.10620    0.64970    1.000
    O1       O        0.62550    0.58200    0.73980    1.000
    O2       O        0.71230    0.78580    0.67674    1.000
    O3       O        0.23040    0.58290    0.73975    1.000
    O4       O        0.14590    0.78600    0.67593    1.000
    O5       O        0.87450    0.91800    0.23980    1.000
    O6       O        0.78770    0.71420    0.17674    1.000
    O7       O        0.26960    0.91710    0.23975    1.000
    O8       O        0.35410    0.71400    0.17593    1.000
    O9       O        0.37450    0.41800    0.26020    1.000
    O10      O        0.28770    0.21420    0.32326    1.000
    O11      O        0.76960    0.41710    0.26025    1.000
    O12      O        0.85410    0.21400    0.32407    1.000
    O13      O        0.12550    0.08200    0.76020    1.000
    O14      O        0.21230    0.28580    0.82326    1.000
    O15      O        0.73040    0.08290    0.76025    1.000
    O16      O        0.64590    0.28600    0.82407    1.000
