# CIF file generated by openbabel 3.1.0, see https://openbabel.org
data_I
_chemical_name_common 'image0'
_cell_length_a 9.9725
_cell_length_b 10.5369
_cell_length_c 14.1184
_cell_angle_alpha 90.477
_cell_angle_beta 109.924
_cell_angle_gamma 98.596
_space_group_name_H-M_alt 'P 1'
_space_group_name_Hall 'P 1'
loop_
    _symmetry_equiv_pos_as_xyz
    x,y,z
loop_
    _atom_site_label
    _atom_site_type_symbol
    _atom_site_fract_x
    _atom_site_fract_y
    _atom_site_fract_z
    _atom_site_occupancy
    Co1      Co       0.58392    0.27034    0.00512    1.000
    Co2      Co       0.04168    0.17515    0.89916    1.000
    Co3      Co       0.13496    0.31672    0.12657    1.000
    P1       P        0.83849    0.09710    0.03292    1.000
    P2       P        0.31476    0.41666    0.98450    1.000
    O1       O        0.99650    0.15510    0.04830    1.000
    O2       O        0.82810    0.96010    0.06640    1.000
    O3       O        0.76040    0.18070    0.07430    1.000
    O4       O        0.84520    0.03740    0.84930    1.000
    O5       O        0.86830    0.28430    0.85100    1.000
    O6       O        0.65580    0.28690    0.86980    1.000
    O7       O        0.16920    0.33540    0.97730    1.000
    O8       O        0.40080    0.35180    0.93520    1.000
    O9       O        0.29030    0.55040    0.95000    1.000
    O10      O        0.31640    0.46860    0.17000    1.000
    O11      O        0.31440    0.22210    0.17000    1.000
    O12      O        0.51480    0.23340    0.13180    1.000
    C1       C        0.75550    0.09090    0.89460    1.000
    H1       H        0.65680    0.04300    0.87120    1.000
    C2       C        0.75850    0.23110    0.86830    1.000
    C3       C        0.40710    0.42180    0.12180    1.000
    H2       H        0.50340    0.47430    0.14290    1.000
    C4       C        0.41450    0.28160    0.14440    1.000
    N1       N        0.06540    0.19790    0.75630    1.000
    C5       C        0.09270    0.10780    0.70600    1.000
    H3       H        0.10840    0.03060    0.73610    1.000
    C6       C        0.09990    0.11920    0.61070    1.000
    H4       H        0.11880    0.04990    0.57880    1.000
    C7       C        0.08050    0.22670    0.56340    1.000
    C8       C        0.05780    0.32760    0.61810    1.000
    H5       H        0.04870    0.40730    0.59100    1.000
    C9       C        0.04890    0.30850    0.71200    1.000
    H6       H        0.03050    0.37590    0.74630    1.000
    N2       N        0.10730    0.27880    0.26820    1.000
    C10      C        0.99960    0.31560    0.29300    1.000
    H7       H        0.92980    0.35310    0.24500    1.000
    C11      C        0.98890    0.29940    0.38800    1.000
    H8       H        0.91330    0.32720    0.40230    1.000
    C12      C        0.08910    0.24260    0.46130    1.000
    C13      C        0.18070    0.18430    0.42790    1.000
    H9       H        0.23880    0.13100    0.46920    1.000
    C14      C        0.18610    0.20560    0.33160    1.000
    H10      H        0.24950    0.16550    0.31120    1.000
    C15      C        0.95500    0.82310    0.70610    1.000
    C16      C        0.96400    0.84040    0.61120    1.000
    C17      C        0.83300    0.63400    0.55880    1.000
    C18      C        0.83400    0.62100    0.65670    1.000
    C19      C        0.18780    0.20300    0.73860    1.000
    C20      C        0.19430    0.21100    0.64190    1.000
    C21      C        0.94810    0.20400    0.57840    1.000
    C22      C        0.94200    0.19000    0.67300    1.000
    H11      H        0.99740    0.89080    0.75480    1.000
    H12      H        0.98680    0.08170    0.39930    1.000
    H13      H        0.78600    0.56920    0.50830    1.000
    H14      H        0.79310    0.54300    0.67300    1.000
    H15      H        0.27260    0.20070    0.79270    1.000
    H16      H        0.28090    0.20460    0.63220    1.000
    H17      H        0.86280    0.19830    0.52330    1.000
    H18      H        0.85260    0.17520    0.68130    1.000
    Co4      Co       0.41608    0.72966    0.99488    1.000
    Co5      Co       0.95832    0.82485    0.10084    1.000
    Co6      Co       0.86504    0.68328    0.87343    1.000
    P3       P        0.16151    0.90290    0.96708    1.000
    P4       P        0.68524    0.58334    0.01550    1.000
    O13      O        0.00350    0.84490    0.95170    1.000
    O14      O        0.17190    0.03990    0.93360    1.000
    O15      O        0.23960    0.81930    0.92570    1.000
    O16      O        0.15480    0.96260    0.15070    1.000
    O17      O        0.13170    0.71570    0.14900    1.000
    O18      O        0.34420    0.71310    0.13020    1.000
    O19      O        0.83080    0.66460    0.02270    1.000
    O20      O        0.59920    0.64820    0.06480    1.000
    O21      O        0.70970    0.44960    0.05000    1.000
    O22      O        0.68360    0.53140    0.83000    1.000
    O23      O        0.68560    0.77790    0.83000    1.000
    O24      O        0.48520    0.76660    0.86820    1.000
    C23      C        0.24450    0.90910    0.10540    1.000
    H19      H        0.34320    0.95700    0.12880    1.000
    C24      C        0.24150    0.76890    0.13170    1.000
    C25      C        0.59290    0.57820    0.87820    1.000
    H20      H        0.49660    0.52570    0.85710    1.000
    C26      C        0.58550    0.71840    0.85560    1.000
    N3       N        0.93460    0.80210    0.24370    1.000
    C27      C        0.90730    0.89220    0.29400    1.000
    H21      H        0.89160    0.96940    0.26390    1.000
    C28      C        0.90010    0.88080    0.38930    1.000
    H22      H        0.88120    0.95010    0.42120    1.000
    C29      C        0.91950    0.77330    0.43660    1.000
    C30      C        0.94220    0.67240    0.38190    1.000
    H23      H        0.95130    0.59270    0.40900    1.000
    C31      C        0.95110    0.69150    0.28800    1.000
    H24      H        0.96950    0.62410    0.25370    1.000
    N4       N        0.89270    0.72120    0.73180    1.000
    C32      C        0.00040    0.68440    0.70700    1.000
    H25      H        0.07020    0.64690    0.75500    1.000
    C33      C        0.01110    0.70060    0.61200    1.000
    H26      H        0.08670    0.67280    0.59770    1.000
    C34      C        0.91090    0.75740    0.53870    1.000
    C35      C        0.81930    0.81570    0.57210    1.000
    H27      H        0.76120    0.86900    0.53080    1.000
    C36      C        0.81390    0.79440    0.66840    1.000
    H28      H        0.75050    0.83450    0.68880    1.000
    C37      C        0.04500    0.17690    0.29390    1.000
    C38      C        0.03600    0.15960    0.38880    1.000
    C39      C        0.16700    0.36600    0.44120    1.000
    C40      C        0.16600    0.37900    0.34330    1.000
    C41      C        0.81220    0.79700    0.26140    1.000
    C42      C        0.80570    0.78900    0.35810    1.000
    C43      C        0.05190    0.79600    0.42160    1.000
    C44      C        0.05800    0.81000    0.32700    1.000
    H29      H        0.00260    0.10920    0.24520    1.000
    H30      H        0.01320    0.91830    0.60070    1.000
    H31      H        0.21400    0.43080    0.49170    1.000
    H32      H        0.20690    0.45700    0.32700    1.000
    H33      H        0.72740    0.79930    0.20730    1.000
    H34      H        0.71910    0.79540    0.36780    1.000
    H35      H        0.13720    0.80170    0.47670    1.000
    H36      H        0.14740    0.82480    0.31870    1.000
