# CIF file generated by openbabel 3.1.0, see https://openbabel.org
data_I
_chemical_name_common 'image0'
_cell_length_a 22.624
_cell_length_b 12.645
_cell_length_c 14.735
_cell_angle_alpha 90
_cell_angle_beta 94.92
_cell_angle_gamma 90
_space_group_name_H-M_alt 'P 1'
_space_group_name_Hall 'P 1'
loop_
    _symmetry_equiv_pos_as_xyz
    x,y,z
loop_
    _atom_site_label
    _atom_site_type_symbol
    _atom_site_fract_x
    _atom_site_fract_y
    _atom_site_fract_z
    _atom_site_occupancy
    Cd1      Cd       0.25439    0.91556    0.75341    1.000
    C1       C        0.13440    0.06400    0.76910    1.000
    H1       H        0.13040    0.06350    0.70300    1.000
    H2       H        0.11500    0.00110    0.78990    1.000
    C2       C        0.22550    0.16220    0.77130    1.000
    H3       H        0.26730    0.16310    0.79240    1.000
    H4       H        0.22250    0.16350    0.70530    1.000
    C3       C        0.20260    0.06440    0.90480    1.000
    H5       H        0.18480    0.00100    0.92760    1.000
    H6       H        0.24400    0.06580    0.92830    1.000
    C4       C        0.11250    0.15630    0.90260    1.000
    H7       H        0.09180    0.21670    0.92530    1.000
    H8       H        0.09420    0.09290    0.92450    1.000
    C5       C        0.13430    0.25470    0.76980    1.000
    H9       H        0.13050    0.25690    0.70370    1.000
    H10      H        0.11470    0.31670    0.79190    1.000
    C6       C        0.20250    0.25210    0.90470    1.000
    H11      H        0.24360    0.25030    0.92640    1.000
    H12      H        0.18540    0.31590    0.92800    1.000
    C7       C        0.34090    0.04900    0.43330    1.000
    C8       C        0.38390    0.09520    0.50650    1.000
    H13      H        0.41740    0.12900    0.48840    1.000
    C9       C        0.37730    0.09100    0.59450    1.000
    H14      H        0.40650    0.12070    0.63490    1.000
    C10      C        0.32400    0.03960    0.63270    1.000
    N1       N        0.10470    0.15710    0.80130    1.000
    N2       N        0.19875    0.06050    0.80190    1.000
    N3       N        0.17180    0.15950    0.93850    1.000
    N4       N        0.19806    0.25640    0.80330    1.000
    O1       O        0.33501    0.99820    0.71240    1.000
    O2       O        0.27572    0.03690    0.59170    1.000
    O3       O        0.34163    0.95240    0.41790    1.000
    O4       O        0.30733    0.11760    0.38930    1.000
    Cd2      Cd       0.74561    0.91556    0.74659    1.000
    C11      C        0.86560    0.06400    0.73090    1.000
    H15      H        0.86960    0.06350    0.79700    1.000
    H16      H        0.88500    0.00110    0.71010    1.000
    C12      C        0.77450    0.16220    0.72870    1.000
    H17      H        0.73270    0.16310    0.70760    1.000
    H18      H        0.77750    0.16350    0.79470    1.000
    C13      C        0.79740    0.06440    0.59520    1.000
    H19      H        0.81520    0.00100    0.57240    1.000
    H20      H        0.75600    0.06580    0.57170    1.000
    C14      C        0.88750    0.15630    0.59740    1.000
    H21      H        0.90820    0.21670    0.57470    1.000
    H22      H        0.90580    0.09290    0.57550    1.000
    C15      C        0.86570    0.25470    0.73020    1.000
    H23      H        0.86950    0.25690    0.79630    1.000
    H24      H        0.88530    0.31670    0.70810    1.000
    C16      C        0.79750    0.25210    0.59530    1.000
    H25      H        0.75640    0.25030    0.57360    1.000
    H26      H        0.81460    0.31590    0.57200    1.000
    C17      C        0.65910    0.04900    0.06670    1.000
    C18      C        0.61610    0.09520    0.99350    1.000
    H27      H        0.58260    0.12900    0.01160    1.000
    C19      C        0.62270    0.09100    0.90550    1.000
    H28      H        0.59350    0.12070    0.86510    1.000
    C20      C        0.67600    0.03960    0.86730    1.000
    N5       N        0.89530    0.15710    0.69870    1.000
    N6       N        0.80125    0.06050    0.69810    1.000
    N7       N        0.82820    0.15950    0.56150    1.000
    N8       N        0.80194    0.25640    0.69670    1.000
    O5       O        0.66499    0.99820    0.78760    1.000
    O6       O        0.72428    0.03690    0.90830    1.000
    O7       O        0.65837    0.95240    0.08210    1.000
    O8       O        0.69267    0.11760    0.11070    1.000
    Cd3      Cd       0.74561    0.08444    0.24659    1.000
    C21      C        0.86560    0.93600    0.23090    1.000
    H29      H        0.86960    0.93650    0.29700    1.000
    H30      H        0.88500    0.99890    0.21010    1.000
    C22      C        0.77450    0.83780    0.22870    1.000
    H31      H        0.73270    0.83690    0.20760    1.000
    H32      H        0.77750    0.83650    0.29470    1.000
    C23      C        0.79740    0.93560    0.09520    1.000
    H33      H        0.81520    0.99900    0.07240    1.000
    H34      H        0.75600    0.93420    0.07170    1.000
    C24      C        0.88750    0.84370    0.09740    1.000
    H35      H        0.90820    0.78330    0.07470    1.000
    H36      H        0.90580    0.90710    0.07550    1.000
    C25      C        0.86570    0.74530    0.23020    1.000
    H37      H        0.86950    0.74310    0.29630    1.000
    H38      H        0.88530    0.68330    0.20810    1.000
    C26      C        0.79750    0.74790    0.09530    1.000
    H39      H        0.75640    0.74970    0.07360    1.000
    H40      H        0.81460    0.68410    0.07200    1.000
    C27      C        0.65910    0.95100    0.56670    1.000
    C28      C        0.61610    0.90480    0.49350    1.000
    H41      H        0.58260    0.87100    0.51160    1.000
    C29      C        0.62270    0.90900    0.40550    1.000
    H42      H        0.59350    0.87930    0.36510    1.000
    C30      C        0.67600    0.96040    0.36730    1.000
    N9       N        0.89530    0.84290    0.19870    1.000
    N10      N        0.80125    0.93950    0.19810    1.000
    N11      N        0.82820    0.84050    0.06150    1.000
    N12      N        0.80194    0.74360    0.19670    1.000
    O9       O        0.66499    0.00180    0.28760    1.000
    O10      O        0.72428    0.96310    0.40830    1.000
    O11      O        0.65837    0.04760    0.58210    1.000
    O12      O        0.69267    0.88240    0.61070    1.000
    Cd4      Cd       0.25439    0.08444    0.25341    1.000
    C31      C        0.13440    0.93600    0.26910    1.000
    H43      H        0.13040    0.93650    0.20300    1.000
    H44      H        0.11500    0.99890    0.28990    1.000
    C32      C        0.22550    0.83780    0.27130    1.000
    H45      H        0.26730    0.83690    0.29240    1.000
    H46      H        0.22250    0.83650    0.20530    1.000
    C33      C        0.20260    0.93560    0.40480    1.000
    H47      H        0.18480    0.99900    0.42760    1.000
    H48      H        0.24400    0.93420    0.42830    1.000
    C34      C        0.11250    0.84370    0.40260    1.000
    H49      H        0.09180    0.78330    0.42530    1.000
    H50      H        0.09420    0.90710    0.42450    1.000
    C35      C        0.13430    0.74530    0.26980    1.000
    H51      H        0.13050    0.74310    0.20370    1.000
    H52      H        0.11470    0.68330    0.29190    1.000
    C36      C        0.20250    0.74790    0.40470    1.000
    H53      H        0.24360    0.74970    0.42640    1.000
    H54      H        0.18540    0.68410    0.42800    1.000
    C37      C        0.34090    0.95100    0.93330    1.000
    C38      C        0.38390    0.90480    0.00650    1.000
    H55      H        0.41740    0.87100    0.98840    1.000
    C39      C        0.37730    0.90900    0.09450    1.000
    H56      H        0.40650    0.87930    0.13490    1.000
    C40      C        0.32400    0.96040    0.13270    1.000
    N13      N        0.10470    0.84290    0.30130    1.000
    N14      N        0.19875    0.93950    0.30190    1.000
    N15      N        0.17180    0.84050    0.43850    1.000
    N16      N        0.19806    0.74360    0.30330    1.000
    O13      O        0.33501    0.00180    0.21240    1.000
    O14      O        0.27572    0.96310    0.09170    1.000
    O15      O        0.34163    0.04760    0.91790    1.000
    O16      O        0.30733    0.88240    0.88930    1.000
    Cd5      Cd       0.00000    0.16791    0.75000    1.000
    Cd6      Cd       0.00000    0.83209    0.25000    1.000
    Cd7      Cd       0.75439    0.41556    0.75341    1.000
    C41      C        0.63440    0.56400    0.76910    1.000
    H57      H        0.63040    0.56350    0.70300    1.000
    H58      H        0.61500    0.50110    0.78990    1.000
    C42      C        0.72550    0.66220    0.77130    1.000
    H59      H        0.76730    0.66310    0.79240    1.000
    H60      H        0.72250    0.66350    0.70530    1.000
    C43      C        0.70260    0.56440    0.90480    1.000
    H61      H        0.68480    0.50100    0.92760    1.000
    H62      H        0.74400    0.56580    0.92830    1.000
    C44      C        0.61250    0.65630    0.90260    1.000
    H63      H        0.59180    0.71670    0.92530    1.000
    H64      H        0.59420    0.59290    0.92450    1.000
    C45      C        0.63430    0.75470    0.76980    1.000
    H65      H        0.63050    0.75690    0.70370    1.000
    H66      H        0.61470    0.81670    0.79190    1.000
    C46      C        0.70250    0.75210    0.90470    1.000
    H67      H        0.74360    0.75030    0.92640    1.000
    H68      H        0.68540    0.81590    0.92800    1.000
    C47      C        0.84090    0.54900    0.43330    1.000
    C48      C        0.88390    0.59520    0.50650    1.000
    H69      H        0.91740    0.62900    0.48840    1.000
    C49      C        0.87730    0.59100    0.59450    1.000
    H70      H        0.90650    0.62070    0.63490    1.000
    C50      C        0.82400    0.53960    0.63270    1.000
    N17      N        0.60470    0.65710    0.80130    1.000
    N18      N        0.69875    0.56050    0.80190    1.000
    N19      N        0.67180    0.65950    0.93850    1.000
    N20      N        0.69806    0.75640    0.80330    1.000
    O17      O        0.83501    0.49820    0.71240    1.000
    O18      O        0.77572    0.53690    0.59170    1.000
    O19      O        0.84163    0.45240    0.41790    1.000
    O20      O        0.80733    0.61760    0.38930    1.000
    Cd8      Cd       0.24561    0.41556    0.74659    1.000
    C51      C        0.36560    0.56400    0.73090    1.000
    H71      H        0.36960    0.56350    0.79700    1.000
    H72      H        0.38500    0.50110    0.71010    1.000
    C52      C        0.27450    0.66220    0.72870    1.000
    H73      H        0.23270    0.66310    0.70760    1.000
    H74      H        0.27750    0.66350    0.79470    1.000
    C53      C        0.29740    0.56440    0.59520    1.000
    H75      H        0.31520    0.50100    0.57240    1.000
    H76      H        0.25600    0.56580    0.57170    1.000
    C54      C        0.38750    0.65630    0.59740    1.000
    H77      H        0.40820    0.71670    0.57470    1.000
    H78      H        0.40580    0.59290    0.57550    1.000
    C55      C        0.36570    0.75470    0.73020    1.000
    H79      H        0.36950    0.75690    0.79630    1.000
    H80      H        0.38530    0.81670    0.70810    1.000
    C56      C        0.29750    0.75210    0.59530    1.000
    H81      H        0.25640    0.75030    0.57360    1.000
    H82      H        0.31460    0.81590    0.57200    1.000
    C57      C        0.15910    0.54900    0.06670    1.000
    C58      C        0.11610    0.59520    0.99350    1.000
    H83      H        0.08260    0.62900    0.01160    1.000
    C59      C        0.12270    0.59100    0.90550    1.000
    H84      H        0.09350    0.62070    0.86510    1.000
    C60      C        0.17600    0.53960    0.86730    1.000
    N21      N        0.39530    0.65710    0.69870    1.000
    N22      N        0.30125    0.56050    0.69810    1.000
    N23      N        0.32820    0.65950    0.56150    1.000
    N24      N        0.30194    0.75640    0.69670    1.000
    O21      O        0.16499    0.49820    0.78760    1.000
    O22      O        0.22428    0.53690    0.90830    1.000
    O23      O        0.15837    0.45240    0.08210    1.000
    O24      O        0.19267    0.61760    0.11070    1.000
    Cd9      Cd       0.24561    0.58444    0.24659    1.000
    C61      C        0.36560    0.43600    0.23090    1.000
    H85      H        0.36960    0.43650    0.29700    1.000
    H86      H        0.38500    0.49890    0.21010    1.000
    C62      C        0.27450    0.33780    0.22870    1.000
    H87      H        0.23270    0.33690    0.20760    1.000
    H88      H        0.27750    0.33650    0.29470    1.000
    C63      C        0.29740    0.43560    0.09520    1.000
    H89      H        0.31520    0.49900    0.07240    1.000
    H90      H        0.25600    0.43420    0.07170    1.000
    C64      C        0.38750    0.34370    0.09740    1.000
    H91      H        0.40820    0.28330    0.07470    1.000
    H92      H        0.40580    0.40710    0.07550    1.000
    C65      C        0.36570    0.24530    0.23020    1.000
    H93      H        0.36950    0.24310    0.29630    1.000
    H94      H        0.38530    0.18330    0.20810    1.000
    C66      C        0.29750    0.24790    0.09530    1.000
    H95      H        0.25640    0.24970    0.07360    1.000
    H96      H        0.31460    0.18410    0.07200    1.000
    C67      C        0.15910    0.45100    0.56670    1.000
    C68      C        0.11610    0.40480    0.49350    1.000
    H97      H        0.08260    0.37100    0.51160    1.000
    C69      C        0.12270    0.40900    0.40550    1.000
    H98      H        0.09350    0.37930    0.36510    1.000
    C70      C        0.17600    0.46040    0.36730    1.000
    N25      N        0.39530    0.34290    0.19870    1.000
    N26      N        0.30125    0.43950    0.19810    1.000
    N27      N        0.32820    0.34050    0.06150    1.000
    N28      N        0.30194    0.24360    0.19670    1.000
    O25      O        0.16499    0.50180    0.28760    1.000
    O26      O        0.22428    0.46310    0.40830    1.000
    O27      O        0.15837    0.54760    0.58210    1.000
    O28      O        0.19267    0.38240    0.61070    1.000
    Cd10     Cd       0.75439    0.58444    0.25341    1.000
    C71      C        0.63440    0.43600    0.26910    1.000
    H99      H        0.63040    0.43650    0.20300    1.000
    H100     H        0.61500    0.49890    0.28990    1.000
    C72      C        0.72550    0.33780    0.27130    1.000
    H101     H        0.76730    0.33690    0.29240    1.000
    H102     H        0.72250    0.33650    0.20530    1.000
    C73      C        0.70260    0.43560    0.40480    1.000
    H103     H        0.68480    0.49900    0.42760    1.000
    H104     H        0.74400    0.43420    0.42830    1.000
    C74      C        0.61250    0.34370    0.40260    1.000
    H105     H        0.59180    0.28330    0.42530    1.000
    H106     H        0.59420    0.40710    0.42450    1.000
    C75      C        0.63430    0.24530    0.26980    1.000
    H107     H        0.63050    0.24310    0.20370    1.000
    H108     H        0.61470    0.18330    0.29190    1.000
    C76      C        0.70250    0.24790    0.40470    1.000
    H109     H        0.74360    0.24970    0.42640    1.000
    H110     H        0.68540    0.18410    0.42800    1.000
    C77      C        0.84090    0.45100    0.93330    1.000
    C78      C        0.88390    0.40480    0.00650    1.000
    H111     H        0.91740    0.37100    0.98840    1.000
    C79      C        0.87730    0.40900    0.09450    1.000
    H112     H        0.90650    0.37930    0.13490    1.000
    C80      C        0.82400    0.46040    0.13270    1.000
    N29      N        0.60470    0.34290    0.30130    1.000
    N30      N        0.69875    0.43950    0.30190    1.000
    N31      N        0.67180    0.34050    0.43850    1.000
    N32      N        0.69806    0.24360    0.30330    1.000
    O29      O        0.83501    0.50180    0.21240    1.000
    O30      O        0.77572    0.46310    0.09170    1.000
    O31      O        0.84163    0.54760    0.91790    1.000
    O32      O        0.80733    0.38240    0.88930    1.000
    Cd11     Cd       0.50000    0.66791    0.75000    1.000
    Cd12     Cd       0.50000    0.33209    0.25000    1.000
