# CIF file generated by openbabel 3.1.0, see https://openbabel.org
data_I
_chemical_name_common 'YIKJOT_clean'
_cell_length_a 35.2627
_cell_length_b 35.2627
_cell_length_c 35.2627
_cell_angle_alpha 60
_cell_angle_beta 60
_cell_angle_gamma 60
_space_group_name_H-M_alt 'P 1'
_space_group_name_Hall 'P 1'
loop_
    _symmetry_equiv_pos_as_xyz
    x,y,z
loop_
    _atom_site_label
    _atom_site_type_symbol
    _atom_site_fract_x
    _atom_site_fract_y
    _atom_site_fract_z
    _atom_site_occupancy
    Ag1      Ag       0.06907    0.88306    0.31498    1.000
    Ag2      Ag       0.00831    0.81699    0.43491    1.000
    Ag3      Ag       0.38306    0.56907    0.73289    1.000
    Ag4      Ag       0.31699    0.50831    0.73979    1.000
    Ag5      Ag       0.81498    0.73289    0.56907    1.000
    Ag6      Ag       0.93491    0.73979    0.50831    1.000
    Ag7      Ag       0.23289    0.31498    0.88306    1.000
    Ag8      Ag       0.23979    0.43491    0.81699    1.000
    Ag9      Ag       0.06907    0.31498    0.73289    1.000
    Ag10     Ag       0.00831    0.43491    0.73979    1.000
    Ag11     Ag       0.38306    0.73289    0.31498    1.000
    Ag12     Ag       0.31699    0.73979    0.43491    1.000
    Ag13     Ag       0.81498    0.56907    0.88306    1.000
    Ag14     Ag       0.93491    0.50831    0.81699    1.000
    Ag15     Ag       0.23289    0.88306    0.56907    1.000
    Ag16     Ag       0.23979    0.81699    0.50831    1.000
    Ag17     Ag       0.06907    0.73289    0.88306    1.000
    Ag18     Ag       0.00831    0.73979    0.81699    1.000
    Ag19     Ag       0.38306    0.31498    0.56907    1.000
    Ag20     Ag       0.31699    0.43491    0.50831    1.000
    Ag21     Ag       0.81498    0.88306    0.73289    1.000
    Ag22     Ag       0.93491    0.81699    0.73979    1.000
    Ag23     Ag       0.23289    0.56907    0.31498    1.000
    Ag24     Ag       0.23979    0.50831    0.43491    1.000
    Ag25     Ag       0.11694    0.93093    0.18502    1.000
    Ag26     Ag       0.18301    0.99169    0.06509    1.000
    Ag27     Ag       0.43093    0.61694    0.76711    1.000
    Ag28     Ag       0.49169    0.68301    0.76021    1.000
    Ag29     Ag       0.26711    0.18502    0.93093    1.000
    Ag30     Ag       0.26021    0.06509    0.99169    1.000
    Ag31     Ag       0.68502    0.76711    0.61694    1.000
    Ag32     Ag       0.56509    0.76021    0.68301    1.000
    Ag33     Ag       0.68502    0.93093    0.76711    1.000
    Ag34     Ag       0.56509    0.99169    0.76021    1.000
    Ag35     Ag       0.26711    0.61694    0.18502    1.000
    Ag36     Ag       0.26021    0.68301    0.06509    1.000
    Ag37     Ag       0.43093    0.18502    0.61694    1.000
    Ag38     Ag       0.49169    0.06509    0.68301    1.000
    Ag39     Ag       0.11694    0.76711    0.93093    1.000
    Ag40     Ag       0.18301    0.76021    0.99169    1.000
    Ag41     Ag       0.26711    0.93093    0.61694    1.000
    Ag42     Ag       0.26021    0.99169    0.68301    1.000
    Ag43     Ag       0.68502    0.61694    0.93093    1.000
    Ag44     Ag       0.56509    0.68301    0.99169    1.000
    Ag45     Ag       0.11694    0.18502    0.76711    1.000
    Ag46     Ag       0.18301    0.06509    0.76021    1.000
    Ag47     Ag       0.43093    0.76711    0.18502    1.000
    Ag48     Ag       0.49169    0.76021    0.06509    1.000
    Ag49     Ag       0.93093    0.11694    0.68502    1.000
    Ag50     Ag       0.99169    0.18301    0.56509    1.000
    Ag51     Ag       0.61694    0.43093    0.26711    1.000
    Ag52     Ag       0.68301    0.49169    0.26021    1.000
    Ag53     Ag       0.18502    0.26711    0.43093    1.000
    Ag54     Ag       0.06509    0.26021    0.49169    1.000
    Ag55     Ag       0.76711    0.68502    0.11694    1.000
    Ag56     Ag       0.76021    0.56509    0.18301    1.000
    Ag57     Ag       0.93093    0.68502    0.26711    1.000
    Ag58     Ag       0.99169    0.56509    0.26021    1.000
    Ag59     Ag       0.61694    0.26711    0.68502    1.000
    Ag60     Ag       0.68301    0.26021    0.56509    1.000
    Ag61     Ag       0.18502    0.43093    0.11694    1.000
    Ag62     Ag       0.06509    0.49169    0.18301    1.000
    Ag63     Ag       0.76711    0.11694    0.43093    1.000
    Ag64     Ag       0.76021    0.18301    0.49169    1.000
    Ag65     Ag       0.93093    0.26711    0.11694    1.000
    Ag66     Ag       0.99169    0.26021    0.18301    1.000
    Ag67     Ag       0.61694    0.68502    0.43093    1.000
    Ag68     Ag       0.68301    0.56509    0.49169    1.000
    Ag69     Ag       0.18502    0.11694    0.26711    1.000
    Ag70     Ag       0.06509    0.18301    0.26021    1.000
    Ag71     Ag       0.76711    0.43093    0.68502    1.000
    Ag72     Ag       0.76021    0.49169    0.56509    1.000
    Ag73     Ag       0.88306    0.06907    0.81498    1.000
    Ag74     Ag       0.81699    0.00831    0.93491    1.000
    Ag75     Ag       0.56907    0.38306    0.23289    1.000
    Ag76     Ag       0.50831    0.31699    0.23979    1.000
    Ag77     Ag       0.73289    0.81498    0.06907    1.000
    Ag78     Ag       0.73979    0.93491    0.00831    1.000
    Ag79     Ag       0.31498    0.23289    0.38306    1.000
    Ag80     Ag       0.43491    0.23979    0.31699    1.000
    Ag81     Ag       0.31498    0.06907    0.23289    1.000
    Ag82     Ag       0.43491    0.00831    0.23979    1.000
    Ag83     Ag       0.73289    0.38306    0.81498    1.000
    Ag84     Ag       0.73979    0.31699    0.93491    1.000
    Ag85     Ag       0.56907    0.81498    0.38306    1.000
    Ag86     Ag       0.50831    0.93491    0.31699    1.000
    Ag87     Ag       0.88306    0.23289    0.06907    1.000
    Ag88     Ag       0.81699    0.23979    0.00831    1.000
    Ag89     Ag       0.73289    0.06907    0.38306    1.000
    Ag90     Ag       0.73979    0.00831    0.31699    1.000
    Ag91     Ag       0.31498    0.38306    0.06907    1.000
    Ag92     Ag       0.43491    0.31699    0.00831    1.000
    Ag93     Ag       0.88306    0.81498    0.23289    1.000
    Ag94     Ag       0.81699    0.93491    0.23979    1.000
    Ag95     Ag       0.56907    0.23289    0.81498    1.000
    Ag96     Ag       0.50831    0.23979    0.93491    1.000
    H1       H        0.15760    0.86420    0.34320    1.000
    H2       H        0.10300    0.78800    0.47140    1.000
    H3       H        0.96160    0.98300    0.32080    1.000
    H4       H        0.90230    0.90430    0.44390    1.000
    H5       H        0.15050    0.85730    0.46170    1.000
    H6       H        0.23440    0.77040    0.39240    1.000
    H7       H        0.87490    0.02310    0.42330    1.000
    H8       H        0.84480    0.98940    0.35200    1.000
    H9       H        0.36420    0.65760    0.63500    1.000
    H10      H        0.28800    0.60300    0.63760    1.000
    H11      H        0.48300    0.46160    0.73460    1.000
    H12      H        0.40430    0.40230    0.74950    1.000
    H13      H        0.35730    0.65050    0.53050    1.000
    H14      H        0.27040    0.73440    0.60280    1.000
    H15      H        0.52310    0.37490    0.67870    1.000
    H16      H        0.48940    0.34480    0.81380    1.000
    H17      H        0.84320    0.63500    0.65760    1.000
    H18      H        0.97140    0.63760    0.60300    1.000
    H19      H        0.82080    0.73460    0.46160    1.000
    H20      H        0.94390    0.74950    0.40230    1.000
    H21      H        0.96170    0.53050    0.65050    1.000
    H22      H        0.89240    0.60280    0.73440    1.000
    H23      H        0.92330    0.67870    0.37490    1.000
    H24      H        0.85200    0.81380    0.34480    1.000
    H25      H        0.13500    0.34320    0.86420    1.000
    H26      H        0.13760    0.47140    0.78800    1.000
    H27      H        0.23460    0.32080    0.98300    1.000
    H28      H        0.24950    0.44390    0.90430    1.000
    H29      H        0.03050    0.46170    0.85730    1.000
    H30      H        0.10280    0.39240    0.77040    1.000
    H31      H        0.17870    0.42330    0.02310    1.000
    H32      H        0.31380    0.35200    0.98940    1.000
    H33      H        0.15760    0.34320    0.63500    1.000
    H34      H        0.10300    0.47140    0.63760    1.000
    H35      H        0.96160    0.32080    0.73460    1.000
    H36      H        0.90230    0.44390    0.74950    1.000
    H37      H        0.15050    0.46170    0.53050    1.000
    H38      H        0.23440    0.39240    0.60280    1.000
    H39      H        0.87490    0.42330    0.67870    1.000
    H40      H        0.84480    0.35200    0.81380    1.000
    H41      H        0.36420    0.63500    0.34320    1.000
    H42      H        0.28800    0.63760    0.47140    1.000
    H43      H        0.48300    0.73460    0.32080    1.000
    H44      H        0.40430    0.74950    0.44390    1.000
    H45      H        0.35730    0.53050    0.46170    1.000
    H46      H        0.27040    0.60280    0.39240    1.000
    H47      H        0.52310    0.67870    0.42330    1.000
    H48      H        0.48940    0.81380    0.35200    1.000
    H49      H        0.84320    0.65760    0.86420    1.000
    H50      H        0.97140    0.60300    0.78800    1.000
    H51      H        0.82080    0.46160    0.98300    1.000
    H52      H        0.94390    0.40230    0.90430    1.000
    H53      H        0.96170    0.65050    0.85730    1.000
    H54      H        0.89240    0.73440    0.77040    1.000
    H55      H        0.92330    0.37490    0.02310    1.000
    H56      H        0.85200    0.34480    0.98940    1.000
    H57      H        0.13500    0.86420    0.65760    1.000
    H58      H        0.13760    0.78800    0.60300    1.000
    H59      H        0.23460    0.98300    0.46160    1.000
    H60      H        0.24950    0.90430    0.40230    1.000
    H61      H        0.03050    0.85730    0.65050    1.000
    H62      H        0.10280    0.77040    0.73440    1.000
    H63      H        0.17870    0.02310    0.37490    1.000
    H64      H        0.31380    0.98940    0.34480    1.000
    H65      H        0.15760    0.63500    0.86420    1.000
    H66      H        0.10300    0.63760    0.78800    1.000
    H67      H        0.96160    0.73460    0.98300    1.000
    H68      H        0.90230    0.74950    0.90430    1.000
    H69      H        0.15050    0.53050    0.85730    1.000
    H70      H        0.23440    0.60280    0.77040    1.000
    H71      H        0.87490    0.67870    0.02310    1.000
    H72      H        0.84480    0.81380    0.98940    1.000
    H73      H        0.36420    0.34320    0.65760    1.000
    H74      H        0.28800    0.47140    0.60300    1.000
    H75      H        0.48300    0.32080    0.46160    1.000
    H76      H        0.40430    0.44390    0.40230    1.000
    H77      H        0.35730    0.46170    0.65050    1.000
    H78      H        0.27040    0.39240    0.73440    1.000
    H79      H        0.52310    0.42330    0.37490    1.000
    H80      H        0.48940    0.35200    0.34480    1.000
    H81      H        0.84320    0.86420    0.63500    1.000
    H82      H        0.97140    0.78800    0.63760    1.000
    H83      H        0.82080    0.98300    0.73460    1.000
    H84      H        0.94390    0.90430    0.74950    1.000
    H85      H        0.96170    0.85730    0.53050    1.000
    H86      H        0.89240    0.77040    0.60280    1.000
    H87      H        0.92330    0.02310    0.67870    1.000
    H88      H        0.85200    0.98940    0.81380    1.000
    H89      H        0.13500    0.65760    0.34320    1.000
    H90      H        0.13760    0.60300    0.47140    1.000
    H91      H        0.23460    0.46160    0.32080    1.000
    H92      H        0.24950    0.40230    0.44390    1.000
    H93      H        0.03050    0.65050    0.46170    1.000
    H94      H        0.10280    0.73440    0.39240    1.000
    H95      H        0.17870    0.37490    0.42330    1.000
    H96      H        0.31380    0.34480    0.35200    1.000
    H97      H        0.13580    0.84240    0.15680    1.000
    H98      H        0.21200    0.89700    0.02860    1.000
    H99      H        0.01700    0.03840    0.17920    1.000
    H100     H        0.09570    0.09770    0.05610    1.000
    H101     H        0.14270    0.84950    0.03830    1.000
    H102     H        0.22960    0.76560    0.10760    1.000
    H103     H        0.97690    0.12510    0.07670    1.000
    H104     H        0.01060    0.15520    0.14800    1.000
    H105     H        0.34240    0.63580    0.86500    1.000
    H106     H        0.39700    0.71200    0.86240    1.000
    H107     H        0.53840    0.51700    0.76540    1.000
    H108     H        0.59770    0.59570    0.75050    1.000
    H109     H        0.34950    0.64270    0.96950    1.000
    H110     H        0.26560    0.72960    0.89720    1.000
    H111     H        0.62510    0.47690    0.82130    1.000
    H112     H        0.65520    0.51060    0.68620    1.000
    H113     H        0.36500    0.15680    0.84240    1.000
    H114     H        0.36240    0.02860    0.89700    1.000
    H115     H        0.26540    0.17920    0.03840    1.000
    H116     H        0.25050    0.05610    0.09770    1.000
    H117     H        0.46950    0.03830    0.84950    1.000
    H118     H        0.39720    0.10760    0.76560    1.000
    H119     H        0.32130    0.07670    0.12510    1.000
    H120     H        0.18620    0.14800    0.15520    1.000
    H121     H        0.65680    0.86500    0.63580    1.000
    H122     H        0.52860    0.86240    0.71200    1.000
    H123     H        0.67920    0.76540    0.51700    1.000
    H124     H        0.55610    0.75050    0.59570    1.000
    H125     H        0.53830    0.96950    0.64270    1.000
    H126     H        0.60760    0.89720    0.72960    1.000
    H127     H        0.57670    0.82130    0.47690    1.000
    H128     H        0.64800    0.68620    0.51060    1.000
    H129     H        0.65680    0.84240    0.86500    1.000
    H130     H        0.52860    0.89700    0.86240    1.000
    H131     H        0.67920    0.03840    0.76540    1.000
    H132     H        0.55610    0.09770    0.75050    1.000
    H133     H        0.53830    0.84950    0.96950    1.000
    H134     H        0.60760    0.76560    0.89720    1.000
    H135     H        0.57670    0.12510    0.82130    1.000
    H136     H        0.64800    0.15520    0.68620    1.000
    H137     H        0.36500    0.63580    0.15680    1.000
    H138     H        0.36240    0.71200    0.02860    1.000
    H139     H        0.26540    0.51700    0.17920    1.000
    H140     H        0.25050    0.59570    0.05610    1.000
    H141     H        0.46950    0.64270    0.03830    1.000
    H142     H        0.39720    0.72960    0.10760    1.000
    H143     H        0.32130    0.47690    0.07670    1.000
    H144     H        0.18620    0.51060    0.14800    1.000
    H145     H        0.34240    0.15680    0.63580    1.000
    H146     H        0.39700    0.02860    0.71200    1.000
    H147     H        0.53840    0.17920    0.51700    1.000
    H148     H        0.59770    0.05610    0.59570    1.000
    H149     H        0.34950    0.03830    0.64270    1.000
    H150     H        0.26560    0.10760    0.72960    1.000
    H151     H        0.62510    0.07670    0.47690    1.000
    H152     H        0.65520    0.14800    0.51060    1.000
    H153     H        0.13580    0.86500    0.84240    1.000
    H154     H        0.21200    0.86240    0.89700    1.000
    H155     H        0.01700    0.76540    0.03840    1.000
    H156     H        0.09570    0.75050    0.09770    1.000
    H157     H        0.14270    0.96950    0.84950    1.000
    H158     H        0.22960    0.89720    0.76560    1.000
    H159     H        0.97690    0.82130    0.12510    1.000
    H160     H        0.01060    0.68620    0.15520    1.000
    H161     H        0.36500    0.84240    0.63580    1.000
    H162     H        0.36240    0.89700    0.71200    1.000
    H163     H        0.26540    0.03840    0.51700    1.000
    H164     H        0.25050    0.09770    0.59570    1.000
    H165     H        0.46950    0.84950    0.64270    1.000
    H166     H        0.39720    0.76560    0.72960    1.000
    H167     H        0.32130    0.12510    0.47690    1.000
    H168     H        0.18620    0.15520    0.51060    1.000
    H169     H        0.65680    0.63580    0.84240    1.000
    H170     H        0.52860    0.71200    0.89700    1.000
    H171     H        0.67920    0.51700    0.03840    1.000
    H172     H        0.55610    0.59570    0.09770    1.000
    H173     H        0.53830    0.64270    0.84950    1.000
    H174     H        0.60760    0.72960    0.76560    1.000
    H175     H        0.57670    0.47690    0.12510    1.000
    H176     H        0.64800    0.51060    0.15520    1.000
    H177     H        0.13580    0.15680    0.86500    1.000
    H178     H        0.21200    0.02860    0.86240    1.000
    H179     H        0.01700    0.17920    0.76540    1.000
    H180     H        0.09570    0.05610    0.75050    1.000
    H181     H        0.14270    0.03830    0.96950    1.000
    H182     H        0.22960    0.10760    0.89720    1.000
    H183     H        0.97690    0.07670    0.82130    1.000
    H184     H        0.01060    0.14800    0.68620    1.000
    H185     H        0.34240    0.86500    0.15680    1.000
    H186     H        0.39700    0.86240    0.02860    1.000
    H187     H        0.53840    0.76540    0.17920    1.000
    H188     H        0.59770    0.75050    0.05610    1.000
    H189     H        0.34950    0.96950    0.03830    1.000
    H190     H        0.26560    0.89720    0.10760    1.000
    H191     H        0.62510    0.82130    0.07670    1.000
    H192     H        0.65520    0.68620    0.14800    1.000
    H193     H        0.84240    0.13580    0.65680    1.000
    H194     H        0.89700    0.21200    0.52860    1.000
    H195     H        0.03840    0.01700    0.67920    1.000
    H196     H        0.09770    0.09570    0.55610    1.000
    H197     H        0.84950    0.14270    0.53830    1.000
    H198     H        0.76560    0.22960    0.60760    1.000
    H199     H        0.12510    0.97690    0.57670    1.000
    H200     H        0.15520    0.01060    0.64800    1.000
    H201     H        0.63580    0.34240    0.36500    1.000
    H202     H        0.71200    0.39700    0.36240    1.000
    H203     H        0.51700    0.53840    0.26540    1.000
    H204     H        0.59570    0.59770    0.25050    1.000
    H205     H        0.64270    0.34950    0.46950    1.000
    H206     H        0.72960    0.26560    0.39720    1.000
    H207     H        0.47690    0.62510    0.32130    1.000
    H208     H        0.51060    0.65520    0.18620    1.000
    H209     H        0.15680    0.36500    0.34240    1.000
    H210     H        0.02860    0.36240    0.39700    1.000
    H211     H        0.17920    0.26540    0.53840    1.000
    H212     H        0.05610    0.25050    0.59770    1.000
    H213     H        0.03830    0.46950    0.34950    1.000
    H214     H        0.10760    0.39720    0.26560    1.000
    H215     H        0.07670    0.32130    0.62510    1.000
    H216     H        0.14800    0.18620    0.65520    1.000
    H217     H        0.86500    0.65680    0.13580    1.000
    H218     H        0.86240    0.52860    0.21200    1.000
    H219     H        0.76540    0.67920    0.01700    1.000
    H220     H        0.75050    0.55610    0.09570    1.000
    H221     H        0.96950    0.53830    0.14270    1.000
    H222     H        0.89720    0.60760    0.22960    1.000
    H223     H        0.82130    0.57670    0.97690    1.000
    H224     H        0.68620    0.64800    0.01060    1.000
    H225     H        0.84240    0.65680    0.36500    1.000
    H226     H        0.89700    0.52860    0.36240    1.000
    H227     H        0.03840    0.67920    0.26540    1.000
    H228     H        0.09770    0.55610    0.25050    1.000
    H229     H        0.84950    0.53830    0.46950    1.000
    H230     H        0.76560    0.60760    0.39720    1.000
    H231     H        0.12510    0.57670    0.32130    1.000
    H232     H        0.15520    0.64800    0.18620    1.000
    H233     H        0.63580    0.36500    0.65680    1.000
    H234     H        0.71200    0.36240    0.52860    1.000
    H235     H        0.51700    0.26540    0.67920    1.000
    H236     H        0.59570    0.25050    0.55610    1.000
    H237     H        0.64270    0.46950    0.53830    1.000
    H238     H        0.72960    0.39720    0.60760    1.000
    H239     H        0.47690    0.32130    0.57670    1.000
    H240     H        0.51060    0.18620    0.64800    1.000
    H241     H        0.15680    0.34240    0.13580    1.000
    H242     H        0.02860    0.39700    0.21200    1.000
    H243     H        0.17920    0.53840    0.01700    1.000
    H244     H        0.05610    0.59770    0.09570    1.000
    H245     H        0.03830    0.34950    0.14270    1.000
    H246     H        0.10760    0.26560    0.22960    1.000
    H247     H        0.07670    0.62510    0.97690    1.000
    H248     H        0.14800    0.65520    0.01060    1.000
    H249     H        0.86500    0.13580    0.34240    1.000
    H250     H        0.86240    0.21200    0.39700    1.000
    H251     H        0.76540    0.01700    0.53840    1.000
    H252     H        0.75050    0.09570    0.59770    1.000
    H253     H        0.96950    0.14270    0.34950    1.000
    H254     H        0.89720    0.22960    0.26560    1.000
    H255     H        0.82130    0.97690    0.62510    1.000
    H256     H        0.68620    0.01060    0.65520    1.000
    H257     H        0.84240    0.36500    0.13580    1.000
    H258     H        0.89700    0.36240    0.21200    1.000
    H259     H        0.03840    0.26540    0.01700    1.000
    H260     H        0.09770    0.25050    0.09570    1.000
    H261     H        0.84950    0.46950    0.14270    1.000
    H262     H        0.76560    0.39720    0.22960    1.000
    H263     H        0.12510    0.32130    0.97690    1.000
    H264     H        0.15520    0.18620    0.01060    1.000
    H265     H        0.63580    0.65680    0.34240    1.000
    H266     H        0.71200    0.52860    0.39700    1.000
    H267     H        0.51700    0.67920    0.53840    1.000
    H268     H        0.59570    0.55610    0.59770    1.000
    H269     H        0.64270    0.53830    0.34950    1.000
    H270     H        0.72960    0.60760    0.26560    1.000
    H271     H        0.47690    0.57670    0.62510    1.000
    H272     H        0.51060    0.64800    0.65520    1.000
    H273     H        0.15680    0.13580    0.36500    1.000
    H274     H        0.02860    0.21200    0.36240    1.000
    H275     H        0.17920    0.01700    0.26540    1.000
    H276     H        0.05610    0.09570    0.25050    1.000
    H277     H        0.03830    0.14270    0.46950    1.000
    H278     H        0.10760    0.22960    0.39720    1.000
    H279     H        0.07670    0.97690    0.32130    1.000
    H280     H        0.14800    0.01060    0.18620    1.000
    H281     H        0.86500    0.34240    0.65680    1.000
    H282     H        0.86240    0.39700    0.52860    1.000
    H283     H        0.76540    0.53840    0.67920    1.000
    H284     H        0.75050    0.59770    0.55610    1.000
    H285     H        0.96950    0.34950    0.53830    1.000
    H286     H        0.89720    0.26560    0.60760    1.000
    H287     H        0.82130    0.62510    0.57670    1.000
    H288     H        0.68620    0.65520    0.64800    1.000
    H289     H        0.86420    0.15760    0.84320    1.000
    H290     H        0.78800    0.10300    0.97140    1.000
    H291     H        0.98300    0.96160    0.82080    1.000
    H292     H        0.90430    0.90230    0.94390    1.000
    H293     H        0.85730    0.15050    0.96170    1.000
    H294     H        0.77040    0.23440    0.89240    1.000
    H295     H        0.02310    0.87490    0.92330    1.000
    H296     H        0.98940    0.84480    0.85200    1.000
    H297     H        0.65760    0.36420    0.13500    1.000
    H298     H        0.60300    0.28800    0.13760    1.000
    H299     H        0.46160    0.48300    0.23460    1.000
    H300     H        0.40230    0.40430    0.24950    1.000
    H301     H        0.65050    0.35730    0.03050    1.000
    H302     H        0.73440    0.27040    0.10280    1.000
    H303     H        0.37490    0.52310    0.17870    1.000
    H304     H        0.34480    0.48940    0.31380    1.000
    H305     H        0.63500    0.84320    0.15760    1.000
    H306     H        0.63760    0.97140    0.10300    1.000
    H307     H        0.73460    0.82080    0.96160    1.000
    H308     H        0.74950    0.94390    0.90230    1.000
    H309     H        0.53050    0.96170    0.15050    1.000
    H310     H        0.60280    0.89240    0.23440    1.000
    H311     H        0.67870    0.92330    0.87490    1.000
    H312     H        0.81380    0.85200    0.84480    1.000
    H313     H        0.34320    0.13500    0.36420    1.000
    H314     H        0.47140    0.13760    0.28800    1.000
    H315     H        0.32080    0.23460    0.48300    1.000
    H316     H        0.44390    0.24950    0.40430    1.000
    H317     H        0.46170    0.03050    0.35730    1.000
    H318     H        0.39240    0.10280    0.27040    1.000
    H319     H        0.42330    0.17870    0.52310    1.000
    H320     H        0.35200    0.31380    0.48940    1.000
    H321     H        0.34320    0.15760    0.13500    1.000
    H322     H        0.47140    0.10300    0.13760    1.000
    H323     H        0.32080    0.96160    0.23460    1.000
    H324     H        0.44390    0.90230    0.24950    1.000
    H325     H        0.46170    0.15050    0.03050    1.000
    H326     H        0.39240    0.23440    0.10280    1.000
    H327     H        0.42330    0.87490    0.17870    1.000
    H328     H        0.35200    0.84480    0.31380    1.000
    H329     H        0.63500    0.36420    0.84320    1.000
    H330     H        0.63760    0.28800    0.97140    1.000
    H331     H        0.73460    0.48300    0.82080    1.000
    H332     H        0.74950    0.40430    0.94390    1.000
    H333     H        0.53050    0.35730    0.96170    1.000
    H334     H        0.60280    0.27040    0.89240    1.000
    H335     H        0.67870    0.52310    0.92330    1.000
    H336     H        0.81380    0.48940    0.85200    1.000
    H337     H        0.65760    0.84320    0.36420    1.000
    H338     H        0.60300    0.97140    0.28800    1.000
    H339     H        0.46160    0.82080    0.48300    1.000
    H340     H        0.40230    0.94390    0.40430    1.000
    H341     H        0.65050    0.96170    0.35730    1.000
    H342     H        0.73440    0.89240    0.27040    1.000
    H343     H        0.37490    0.92330    0.52310    1.000
    H344     H        0.34480    0.85200    0.48940    1.000
    H345     H        0.86420    0.13500    0.15760    1.000
    H346     H        0.78800    0.13760    0.10300    1.000
    H347     H        0.98300    0.23460    0.96160    1.000
    H348     H        0.90430    0.24950    0.90230    1.000
    H349     H        0.85730    0.03050    0.15050    1.000
    H350     H        0.77040    0.10280    0.23440    1.000
    H351     H        0.02310    0.17870    0.87490    1.000
    H352     H        0.98940    0.31380    0.84480    1.000
    H353     H        0.63500    0.15760    0.36420    1.000
    H354     H        0.63760    0.10300    0.28800    1.000
    H355     H        0.73460    0.96160    0.48300    1.000
    H356     H        0.74950    0.90230    0.40430    1.000
    H357     H        0.53050    0.15050    0.35730    1.000
    H358     H        0.60280    0.23440    0.27040    1.000
    H359     H        0.67870    0.87490    0.52310    1.000
    H360     H        0.81380    0.84480    0.48940    1.000
    H361     H        0.34320    0.36420    0.15760    1.000
    H362     H        0.47140    0.28800    0.10300    1.000
    H363     H        0.32080    0.48300    0.96160    1.000
    H364     H        0.44390    0.40430    0.90230    1.000
    H365     H        0.46170    0.35730    0.15050    1.000
    H366     H        0.39240    0.27040    0.23440    1.000
    H367     H        0.42330    0.52310    0.87490    1.000
    H368     H        0.35200    0.48940    0.84480    1.000
    H369     H        0.86420    0.84320    0.13500    1.000
    H370     H        0.78800    0.97140    0.13760    1.000
    H371     H        0.98300    0.82080    0.23460    1.000
    H372     H        0.90430    0.94390    0.24950    1.000
    H373     H        0.85730    0.96170    0.03050    1.000
    H374     H        0.77040    0.89240    0.10280    1.000
    H375     H        0.02310    0.92330    0.17870    1.000
    H376     H        0.98940    0.85200    0.31380    1.000
    H377     H        0.65760    0.13500    0.84320    1.000
    H378     H        0.60300    0.13760    0.97140    1.000
    H379     H        0.46160    0.23460    0.82080    1.000
    H380     H        0.40230    0.24950    0.94390    1.000
    H381     H        0.65050    0.03050    0.96170    1.000
    H382     H        0.73440    0.10280    0.89240    1.000
    H383     H        0.37490    0.17870    0.92330    1.000
    H384     H        0.34480    0.31380    0.85200    1.000
    C1       C        0.13790    0.84796    0.36978    1.000
    C2       C        0.10782    0.80692    0.43970    1.000
    C3       C        0.95697    0.95731    0.34845    1.000
    C4       C        0.92474    0.91472    0.41516    1.000
    C5       C        0.17731    0.83449    0.44943    1.000
    C6       C        0.22214    0.78794    0.41192    1.000
    C7       C        0.85930    0.02338    0.40764    1.000
    C8       C        0.84262    0.00500    0.36884    1.000
    C9       C        0.34796    0.63790    0.64436    1.000
    C10      C        0.30692    0.60782    0.64556    1.000
    C11      C        0.45731    0.45697    0.73727    1.000
    C12      C        0.41472    0.42474    0.74538    1.000
    C13      C        0.33449    0.67731    0.53877    1.000
    C14      C        0.28794    0.72214    0.57800    1.000
    C15      C        0.52338    0.35930    0.70968    1.000
    C16      C        0.50500    0.34262    0.78354    1.000
    C17      C        0.86978    0.64436    0.63790    1.000
    C18      C        0.93970    0.64556    0.60782    1.000
    C19      C        0.84845    0.73727    0.45697    1.000
    C20      C        0.91516    0.74538    0.42474    1.000
    C21      C        0.94943    0.53877    0.67731    1.000
    C22      C        0.91192    0.57800    0.72214    1.000
    C23      C        0.90764    0.70968    0.35930    1.000
    C24      C        0.86884    0.78354    0.34262    1.000
    C25      C        0.14436    0.36978    0.84796    1.000
    C26      C        0.14556    0.43970    0.80692    1.000
    C27      C        0.23727    0.34845    0.95731    1.000
    C28      C        0.24538    0.41516    0.91472    1.000
    C29      C        0.03877    0.44943    0.83449    1.000
    C30      C        0.07800    0.41192    0.78794    1.000
    C31      C        0.20968    0.40764    0.02338    1.000
    C32      C        0.28354    0.36884    0.00500    1.000
    C33      C        0.13790    0.36978    0.64436    1.000
    C34      C        0.10782    0.43970    0.64556    1.000
    C35      C        0.95697    0.34845    0.73727    1.000
    C36      C        0.92474    0.41516    0.74538    1.000
    C37      C        0.17731    0.44943    0.53877    1.000
    C38      C        0.22214    0.41192    0.57800    1.000
    C39      C        0.85930    0.40764    0.70968    1.000
    C40      C        0.84262    0.36884    0.78354    1.000
    C41      C        0.34796    0.64436    0.36978    1.000
    C42      C        0.30692    0.64556    0.43970    1.000
    C43      C        0.45731    0.73727    0.34845    1.000
    C44      C        0.41472    0.74538    0.41516    1.000
    C45      C        0.33449    0.53877    0.44943    1.000
    C46      C        0.28794    0.57800    0.41192    1.000
    C47      C        0.52338    0.70968    0.40764    1.000
    C48      C        0.50500    0.78354    0.36884    1.000
    C49      C        0.86978    0.63790    0.84796    1.000
    C50      C        0.93970    0.60782    0.80692    1.000
    C51      C        0.84845    0.45697    0.95731    1.000
    C52      C        0.91516    0.42474    0.91472    1.000
    C53      C        0.94943    0.67731    0.83449    1.000
    C54      C        0.91192    0.72214    0.78794    1.000
    C55      C        0.90764    0.35930    0.02338    1.000
    C56      C        0.86884    0.34262    0.00500    1.000
    C57      C        0.14436    0.84796    0.63790    1.000
    C58      C        0.14556    0.80692    0.60782    1.000
    C59      C        0.23727    0.95731    0.45697    1.000
    C60      C        0.24538    0.91472    0.42474    1.000
    C61      C        0.03877    0.83449    0.67731    1.000
    C62      C        0.07800    0.78794    0.72214    1.000
    C63      C        0.20968    0.02338    0.35930    1.000
    C64      C        0.28354    0.00500    0.34262    1.000
    C65      C        0.13790    0.64436    0.84796    1.000
    C66      C        0.10782    0.64556    0.80692    1.000
    C67      C        0.95697    0.73727    0.95731    1.000
    C68      C        0.92474    0.74538    0.91472    1.000
    C69      C        0.17731    0.53877    0.83449    1.000
    C70      C        0.22214    0.57800    0.78794    1.000
    C71      C        0.85930    0.70968    0.02338    1.000
    C72      C        0.84262    0.78354    0.00500    1.000
    C73      C        0.34796    0.36978    0.63790    1.000
    C74      C        0.30692    0.43970    0.60782    1.000
    C75      C        0.45731    0.34845    0.45697    1.000
    C76      C        0.41472    0.41516    0.42474    1.000
    C77      C        0.33449    0.44943    0.67731    1.000
    C78      C        0.28794    0.41192    0.72214    1.000
    C79      C        0.52338    0.40764    0.35930    1.000
    C80      C        0.50500    0.36884    0.34262    1.000
    C81      C        0.86978    0.84796    0.64436    1.000
    C82      C        0.93970    0.80692    0.64556    1.000
    C83      C        0.84845    0.95731    0.73727    1.000
    C84      C        0.91516    0.91472    0.74538    1.000
    C85      C        0.94943    0.83449    0.53877    1.000
    C86      C        0.91192    0.78794    0.57800    1.000
    C87      C        0.90764    0.02338    0.70968    1.000
    C88      C        0.86884    0.00500    0.78354    1.000
    C89      C        0.14436    0.63790    0.36978    1.000
    C90      C        0.14556    0.60782    0.43970    1.000
    C91      C        0.23727    0.45697    0.34845    1.000
    C92      C        0.24538    0.42474    0.41516    1.000
    C93      C        0.03877    0.67731    0.44943    1.000
    C94      C        0.07800    0.72214    0.41192    1.000
    C95      C        0.20968    0.35930    0.40764    1.000
    C96      C        0.28354    0.34262    0.36884    1.000
    C97      C        0.15204    0.86210    0.13022    1.000
    C98      C        0.19308    0.89218    0.06030    1.000
    C99      C        0.04269    0.04303    0.15155    1.000
    C100     C        0.08528    0.07526    0.08484    1.000
    C101     C        0.16551    0.82269    0.05057    1.000
    C102     C        0.21206    0.77786    0.08808    1.000
    C103     C        0.97662    0.14070    0.09236    1.000
    C104     C        0.99500    0.15738    0.13116    1.000
    C105     C        0.36210    0.65204    0.85564    1.000
    C106     C        0.39218    0.69308    0.85444    1.000
    C107     C        0.54303    0.54269    0.76273    1.000
    C108     C        0.57526    0.58528    0.75462    1.000
    C109     C        0.32269    0.66551    0.96123    1.000
    C110     C        0.27786    0.71206    0.92200    1.000
    C111     C        0.64070    0.47662    0.79032    1.000
    C112     C        0.65738    0.49500    0.71646    1.000
    C113     C        0.35564    0.13022    0.86210    1.000
    C114     C        0.35444    0.06030    0.89218    1.000
    C115     C        0.26273    0.15155    0.04303    1.000
    C116     C        0.25462    0.08484    0.07526    1.000
    C117     C        0.46123    0.05057    0.82269    1.000
    C118     C        0.42200    0.08808    0.77786    1.000
    C119     C        0.29032    0.09236    0.14070    1.000
    C120     C        0.21646    0.13116    0.15738    1.000
    C121     C        0.63022    0.85564    0.65204    1.000
    C122     C        0.56030    0.85444    0.69308    1.000
    C123     C        0.65155    0.76273    0.54269    1.000
    C124     C        0.58484    0.75462    0.58528    1.000
    C125     C        0.55057    0.96123    0.66551    1.000
    C126     C        0.58808    0.92200    0.71206    1.000
    C127     C        0.59236    0.79032    0.47662    1.000
    C128     C        0.63116    0.71646    0.49500    1.000
    C129     C        0.63022    0.86210    0.85564    1.000
    C130     C        0.56030    0.89218    0.85444    1.000
    C131     C        0.65155    0.04303    0.76273    1.000
    C132     C        0.58484    0.07526    0.75462    1.000
    C133     C        0.55057    0.82269    0.96123    1.000
    C134     C        0.58808    0.77786    0.92200    1.000
    C135     C        0.59236    0.14070    0.79032    1.000
    C136     C        0.63116    0.15738    0.71646    1.000
    C137     C        0.35564    0.65204    0.13022    1.000
    C138     C        0.35444    0.69308    0.06030    1.000
    C139     C        0.26273    0.54269    0.15155    1.000
    C140     C        0.25462    0.58528    0.08484    1.000
    C141     C        0.46123    0.66551    0.05057    1.000
    C142     C        0.42200    0.71206    0.08808    1.000
    C143     C        0.29032    0.47662    0.09236    1.000
    C144     C        0.21646    0.49500    0.13116    1.000
    C145     C        0.36210    0.13022    0.65204    1.000
    C146     C        0.39218    0.06030    0.69308    1.000
    C147     C        0.54303    0.15155    0.54269    1.000
    C148     C        0.57526    0.08484    0.58528    1.000
    C149     C        0.32269    0.05057    0.66551    1.000
    C150     C        0.27786    0.08808    0.71206    1.000
    C151     C        0.64070    0.09236    0.47662    1.000
    C152     C        0.65738    0.13116    0.49500    1.000
    C153     C        0.15204    0.85564    0.86210    1.000
    C154     C        0.19308    0.85444    0.89218    1.000
    C155     C        0.04269    0.76273    0.04303    1.000
    C156     C        0.08528    0.75462    0.07526    1.000
    C157     C        0.16551    0.96123    0.82269    1.000
    C158     C        0.21206    0.92200    0.77786    1.000
    C159     C        0.97662    0.79032    0.14070    1.000
    C160     C        0.99500    0.71646    0.15738    1.000
    C161     C        0.35564    0.86210    0.65204    1.000
    C162     C        0.35444    0.89218    0.69308    1.000
    C163     C        0.26273    0.04303    0.54269    1.000
    C164     C        0.25462    0.07526    0.58528    1.000
    C165     C        0.46123    0.82269    0.66551    1.000
    C166     C        0.42200    0.77786    0.71206    1.000
    C167     C        0.29032    0.14070    0.47662    1.000
    C168     C        0.21646    0.15738    0.49500    1.000
    C169     C        0.63022    0.65204    0.86210    1.000
    C170     C        0.56030    0.69308    0.89218    1.000
    C171     C        0.65155    0.54269    0.04303    1.000
    C172     C        0.58484    0.58528    0.07526    1.000
    C173     C        0.55057    0.66551    0.82269    1.000
    C174     C        0.58808    0.71206    0.77786    1.000
    C175     C        0.59236    0.47662    0.14070    1.000
    C176     C        0.63116    0.49500    0.15738    1.000
    C177     C        0.15204    0.13022    0.85564    1.000
    C178     C        0.19308    0.06030    0.85444    1.000
    C179     C        0.04269    0.15155    0.76273    1.000
    C180     C        0.08528    0.08484    0.75462    1.000
    C181     C        0.16551    0.05057    0.96123    1.000
    C182     C        0.21206    0.08808    0.92200    1.000
    C183     C        0.97662    0.09236    0.79032    1.000
    C184     C        0.99500    0.13116    0.71646    1.000
    C185     C        0.36210    0.85564    0.13022    1.000
    C186     C        0.39218    0.85444    0.06030    1.000
    C187     C        0.54303    0.76273    0.15155    1.000
    C188     C        0.57526    0.75462    0.08484    1.000
    C189     C        0.32269    0.96123    0.05057    1.000
    C190     C        0.27786    0.92200    0.08808    1.000
    C191     C        0.64070    0.79032    0.09236    1.000
    C192     C        0.65738    0.71646    0.13116    1.000
    C193     C        0.86210    0.15204    0.63022    1.000
    C194     C        0.89218    0.19308    0.56030    1.000
    C195     C        0.04303    0.04269    0.65155    1.000
    C196     C        0.07526    0.08528    0.58484    1.000
    C197     C        0.82269    0.16551    0.55057    1.000
    C198     C        0.77786    0.21206    0.58808    1.000
    C199     C        0.14070    0.97662    0.59236    1.000
    C200     C        0.15738    0.99500    0.63116    1.000
    C201     C        0.65204    0.36210    0.35564    1.000
    C202     C        0.69308    0.39218    0.35444    1.000
    C203     C        0.54269    0.54303    0.26273    1.000
    C204     C        0.58528    0.57526    0.25462    1.000
    C205     C        0.66551    0.32269    0.46123    1.000
    C206     C        0.71206    0.27786    0.42200    1.000
    C207     C        0.47662    0.64070    0.29032    1.000
    C208     C        0.49500    0.65738    0.21646    1.000
    C209     C        0.13022    0.35564    0.36210    1.000
    C210     C        0.06030    0.35444    0.39218    1.000
    C211     C        0.15155    0.26273    0.54303    1.000
    C212     C        0.08484    0.25462    0.57526    1.000
    C213     C        0.05057    0.46123    0.32269    1.000
    C214     C        0.08808    0.42200    0.27786    1.000
    C215     C        0.09236    0.29032    0.64070    1.000
    C216     C        0.13116    0.21646    0.65738    1.000
    C217     C        0.85564    0.63022    0.15204    1.000
    C218     C        0.85444    0.56030    0.19308    1.000
    C219     C        0.76273    0.65155    0.04269    1.000
    C220     C        0.75462    0.58484    0.08528    1.000
    C221     C        0.96123    0.55057    0.16551    1.000
    C222     C        0.92200    0.58808    0.21206    1.000
    C223     C        0.79032    0.59236    0.97662    1.000
    C224     C        0.71646    0.63116    0.99500    1.000
    C225     C        0.86210    0.63022    0.35564    1.000
    C226     C        0.89218    0.56030    0.35444    1.000
    C227     C        0.04303    0.65155    0.26273    1.000
    C228     C        0.07526    0.58484    0.25462    1.000
    C229     C        0.82269    0.55057    0.46123    1.000
    C230     C        0.77786    0.58808    0.42200    1.000
    C231     C        0.14070    0.59236    0.29032    1.000
    C232     C        0.15738    0.63116    0.21646    1.000
    C233     C        0.65204    0.35564    0.63022    1.000
    C234     C        0.69308    0.35444    0.56030    1.000
    C235     C        0.54269    0.26273    0.65155    1.000
    C236     C        0.58528    0.25462    0.58484    1.000
    C237     C        0.66551    0.46123    0.55057    1.000
    C238     C        0.71206    0.42200    0.58808    1.000
    C239     C        0.47662    0.29032    0.59236    1.000
    C240     C        0.49500    0.21646    0.63116    1.000
    C241     C        0.13022    0.36210    0.15204    1.000
    C242     C        0.06030    0.39218    0.19308    1.000
    C243     C        0.15155    0.54303    0.04269    1.000
    C244     C        0.08484    0.57526    0.08528    1.000
    C245     C        0.05057    0.32269    0.16551    1.000
    C246     C        0.08808    0.27786    0.21206    1.000
    C247     C        0.09236    0.64070    0.97662    1.000
    C248     C        0.13116    0.65738    0.99500    1.000
    C249     C        0.85564    0.15204    0.36210    1.000
    C250     C        0.85444    0.19308    0.39218    1.000
    C251     C        0.76273    0.04269    0.54303    1.000
    C252     C        0.75462    0.08528    0.57526    1.000
    C253     C        0.96123    0.16551    0.32269    1.000
    C254     C        0.92200    0.21206    0.27786    1.000
    C255     C        0.79032    0.97662    0.64070    1.000
    C256     C        0.71646    0.99500    0.65738    1.000
    C257     C        0.86210    0.35564    0.15204    1.000
    C258     C        0.89218    0.35444    0.19308    1.000
    C259     C        0.04303    0.26273    0.04269    1.000
    C260     C        0.07526    0.25462    0.08528    1.000
    C261     C        0.82269    0.46123    0.16551    1.000
    C262     C        0.77786    0.42200    0.21206    1.000
    C263     C        0.14070    0.29032    0.97662    1.000
    C264     C        0.15738    0.21646    0.99500    1.000
    C265     C        0.65204    0.63022    0.36210    1.000
    C266     C        0.69308    0.56030    0.39218    1.000
    C267     C        0.54269    0.65155    0.54303    1.000
    C268     C        0.58528    0.58484    0.57526    1.000
    C269     C        0.66551    0.55057    0.32269    1.000
    C270     C        0.71206    0.58808    0.27786    1.000
    C271     C        0.47662    0.59236    0.64070    1.000
    C272     C        0.49500    0.63116    0.65738    1.000
    C273     C        0.13022    0.15204    0.35564    1.000
    C274     C        0.06030    0.19308    0.35444    1.000
    C275     C        0.15155    0.04269    0.26273    1.000
    C276     C        0.08484    0.08528    0.25462    1.000
    C277     C        0.05057    0.16551    0.46123    1.000
    C278     C        0.08808    0.21206    0.42200    1.000
    C279     C        0.09236    0.97662    0.29032    1.000
    C280     C        0.13116    0.99500    0.21646    1.000
    C281     C        0.85564    0.36210    0.63022    1.000
    C282     C        0.85444    0.39218    0.56030    1.000
    C283     C        0.76273    0.54303    0.65155    1.000
    C284     C        0.75462    0.57526    0.58484    1.000
    C285     C        0.96123    0.32269    0.55057    1.000
    C286     C        0.92200    0.27786    0.58808    1.000
    C287     C        0.79032    0.64070    0.59236    1.000
    C288     C        0.71646    0.65738    0.63116    1.000
    C289     C        0.84796    0.13790    0.86978    1.000
    C290     C        0.80692    0.10782    0.93970    1.000
    C291     C        0.95731    0.95697    0.84845    1.000
    C292     C        0.91472    0.92474    0.91516    1.000
    C293     C        0.83449    0.17731    0.94943    1.000
    C294     C        0.78794    0.22214    0.91192    1.000
    C295     C        0.02338    0.85930    0.90764    1.000
    C296     C        0.00500    0.84262    0.86884    1.000
    C297     C        0.63790    0.34796    0.14436    1.000
    C298     C        0.60782    0.30692    0.14556    1.000
    C299     C        0.45697    0.45731    0.23727    1.000
    C300     C        0.42474    0.41472    0.24538    1.000
    C301     C        0.67731    0.33449    0.03877    1.000
    C302     C        0.72214    0.28794    0.07800    1.000
    C303     C        0.35930    0.52338    0.20968    1.000
    C304     C        0.34262    0.50500    0.28354    1.000
    C305     C        0.64436    0.86978    0.13790    1.000
    C306     C        0.64556    0.93970    0.10782    1.000
    C307     C        0.73727    0.84845    0.95697    1.000
    C308     C        0.74538    0.91516    0.92474    1.000
    C309     C        0.53877    0.94943    0.17731    1.000
    C310     C        0.57800    0.91192    0.22214    1.000
    C311     C        0.70968    0.90764    0.85930    1.000
    C312     C        0.78354    0.86884    0.84262    1.000
    C313     C        0.36978    0.14436    0.34796    1.000
    C314     C        0.43970    0.14556    0.30692    1.000
    C315     C        0.34845    0.23727    0.45731    1.000
    C316     C        0.41516    0.24538    0.41472    1.000
    C317     C        0.44943    0.03877    0.33449    1.000
    C318     C        0.41192    0.07800    0.28794    1.000
    C319     C        0.40764    0.20968    0.52338    1.000
    C320     C        0.36884    0.28354    0.50500    1.000
    C321     C        0.36978    0.13790    0.14436    1.000
    C322     C        0.43970    0.10782    0.14556    1.000
    C323     C        0.34845    0.95697    0.23727    1.000
    C324     C        0.41516    0.92474    0.24538    1.000
    C325     C        0.44943    0.17731    0.03877    1.000
    C326     C        0.41192    0.22214    0.07800    1.000
    C327     C        0.40764    0.85930    0.20968    1.000
    C328     C        0.36884    0.84262    0.28354    1.000
    C329     C        0.64436    0.34796    0.86978    1.000
    C330     C        0.64556    0.30692    0.93970    1.000
    C331     C        0.73727    0.45731    0.84845    1.000
    C332     C        0.74538    0.41472    0.91516    1.000
    C333     C        0.53877    0.33449    0.94943    1.000
    C334     C        0.57800    0.28794    0.91192    1.000
    C335     C        0.70968    0.52338    0.90764    1.000
    C336     C        0.78354    0.50500    0.86884    1.000
    C337     C        0.63790    0.86978    0.34796    1.000
    C338     C        0.60782    0.93970    0.30692    1.000
    C339     C        0.45697    0.84845    0.45731    1.000
    C340     C        0.42474    0.91516    0.41472    1.000
    C341     C        0.67731    0.94943    0.33449    1.000
    C342     C        0.72214    0.91192    0.28794    1.000
    C343     C        0.35930    0.90764    0.52338    1.000
    C344     C        0.34262    0.86884    0.50500    1.000
    C345     C        0.84796    0.14436    0.13790    1.000
    C346     C        0.80692    0.14556    0.10782    1.000
    C347     C        0.95731    0.23727    0.95697    1.000
    C348     C        0.91472    0.24538    0.92474    1.000
    C349     C        0.83449    0.03877    0.17731    1.000
    C350     C        0.78794    0.07800    0.22214    1.000
    C351     C        0.02338    0.20968    0.85930    1.000
    C352     C        0.00500    0.28354    0.84262    1.000
    C353     C        0.64436    0.13790    0.34796    1.000
    C354     C        0.64556    0.10782    0.30692    1.000
    C355     C        0.73727    0.95697    0.45731    1.000
    C356     C        0.74538    0.92474    0.41472    1.000
    C357     C        0.53877    0.17731    0.33449    1.000
    C358     C        0.57800    0.22214    0.28794    1.000
    C359     C        0.70968    0.85930    0.52338    1.000
    C360     C        0.78354    0.84262    0.50500    1.000
    C361     C        0.36978    0.34796    0.13790    1.000
    C362     C        0.43970    0.30692    0.10782    1.000
    C363     C        0.34845    0.45731    0.95697    1.000
    C364     C        0.41516    0.41472    0.92474    1.000
    C365     C        0.44943    0.33449    0.17731    1.000
    C366     C        0.41192    0.28794    0.22214    1.000
    C367     C        0.40764    0.52338    0.85930    1.000
    C368     C        0.36884    0.50500    0.84262    1.000
    C369     C        0.84796    0.86978    0.14436    1.000
    C370     C        0.80692    0.93970    0.14556    1.000
    C371     C        0.95731    0.84845    0.23727    1.000
    C372     C        0.91472    0.91516    0.24538    1.000
    C373     C        0.83449    0.94943    0.03877    1.000
    C374     C        0.78794    0.91192    0.07800    1.000
    C375     C        0.02338    0.90764    0.20968    1.000
    C376     C        0.00500    0.86884    0.28354    1.000
    C377     C        0.63790    0.14436    0.86978    1.000
    C378     C        0.60782    0.14556    0.93970    1.000
    C379     C        0.45697    0.23727    0.84845    1.000
    C380     C        0.42474    0.24538    0.91516    1.000
    C381     C        0.67731    0.03877    0.94943    1.000
    C382     C        0.72214    0.07800    0.91192    1.000
    C383     C        0.35930    0.20968    0.90764    1.000
    C384     C        0.34262    0.28354    0.86884    1.000
    N1       N        0.96735    0.89019    0.40071    1.000
    N2       N        0.98874    0.91758    0.35750    1.000
    N3       N        0.08076    0.82064    0.41650    1.000
    N4       N        0.10217    0.84569    0.37105    1.000
    N5       N        0.21641    0.81803    0.45597    1.000
    N6       N        0.24582    0.78762    0.43082    1.000
    N7       N        0.80852    0.04098    0.37890    1.000
    N8       N        0.81869    0.05391    0.40329    1.000
    N9       N        0.14331    0.82395    0.41165    1.000
    N10      N        0.17894    0.81570    0.42340    1.000
    N11      N        0.91680    0.95742    0.38330    1.000
    N12      N        0.87502    0.99344    0.38696    1.000
    N13      N        0.39019    0.46735    0.74175    1.000
    N14      N        0.41758    0.48874    0.73618    1.000
    N15      N        0.32064    0.58076    0.68210    1.000
    N16      N        0.34569    0.60217    0.68109    1.000
    N17      N        0.31803    0.71641    0.50959    1.000
    N18      N        0.28762    0.74582    0.53574    1.000
    N19      N        0.54098    0.30852    0.77160    1.000
    N20      N        0.55391    0.31869    0.72411    1.000
    N21      N        0.32395    0.64331    0.62109    1.000
    N22      N        0.31570    0.67894    0.58196    1.000
    N23      N        0.45742    0.41680    0.74248    1.000
    N24      N        0.49344    0.37502    0.74458    1.000
    N25      N        0.90071    0.74175    0.46735    1.000
    N26      N        0.85750    0.73618    0.48874    1.000
    N27      N        0.91650    0.68210    0.58076    1.000
    N28      N        0.87105    0.68109    0.60217    1.000
    N29      N        0.95597    0.50959    0.71641    1.000
    N30      N        0.93082    0.53574    0.74582    1.000
    N31      N        0.87890    0.77160    0.30852    1.000
    N32      N        0.90329    0.72411    0.31869    1.000
    N33      N        0.91165    0.62109    0.64331    1.000
    N34      N        0.92340    0.58196    0.67894    1.000
    N35      N        0.88330    0.74248    0.41680    1.000
    N36      N        0.88696    0.74458    0.37502    1.000
    N37      N        0.24175    0.40071    0.89019    1.000
    N38      N        0.23618    0.35750    0.91758    1.000
    N39      N        0.18210    0.41650    0.82064    1.000
    N40      N        0.18109    0.37105    0.84569    1.000
    N41      N        0.00959    0.45597    0.81803    1.000
    N42      N        0.03574    0.43082    0.78762    1.000
    N43      N        0.27160    0.37890    0.04098    1.000
    N44      N        0.22411    0.40329    0.05391    1.000
    N45      N        0.12109    0.41165    0.82395    1.000
    N46      N        0.08196    0.42340    0.81570    1.000
    N47      N        0.24248    0.38330    0.95742    1.000
    N48      N        0.24458    0.38696    0.99344    1.000
    N49      N        0.96735    0.40071    0.74175    1.000
    N50      N        0.98874    0.35750    0.73618    1.000
    N51      N        0.08076    0.41650    0.68210    1.000
    N52      N        0.10217    0.37105    0.68109    1.000
    N53      N        0.21641    0.45597    0.50959    1.000
    N54      N        0.24582    0.43082    0.53574    1.000
    N55      N        0.80852    0.37890    0.77160    1.000
    N56      N        0.81869    0.40329    0.72411    1.000
    N57      N        0.14331    0.41165    0.62109    1.000
    N58      N        0.17894    0.42340    0.58196    1.000
    N59      N        0.91680    0.38330    0.74248    1.000
    N60      N        0.87502    0.38696    0.74458    1.000
    N61      N        0.39019    0.74175    0.40071    1.000
    N62      N        0.41758    0.73618    0.35750    1.000
    N63      N        0.32064    0.68210    0.41650    1.000
    N64      N        0.34569    0.68109    0.37105    1.000
    N65      N        0.31803    0.50959    0.45597    1.000
    N66      N        0.28762    0.53574    0.43082    1.000
    N67      N        0.54098    0.77160    0.37890    1.000
    N68      N        0.55391    0.72411    0.40329    1.000
    N69      N        0.32395    0.62109    0.41165    1.000
    N70      N        0.31570    0.58196    0.42340    1.000
    N71      N        0.45742    0.74248    0.38330    1.000
    N72      N        0.49344    0.74458    0.38696    1.000
    N73      N        0.90071    0.46735    0.89019    1.000
    N74      N        0.85750    0.48874    0.91758    1.000
    N75      N        0.91650    0.58076    0.82064    1.000
    N76      N        0.87105    0.60217    0.84569    1.000
    N77      N        0.95597    0.71641    0.81803    1.000
    N78      N        0.93082    0.74582    0.78762    1.000
    N79      N        0.87890    0.30852    0.04098    1.000
    N80      N        0.90329    0.31869    0.05391    1.000
    N81      N        0.91165    0.64331    0.82395    1.000
    N82      N        0.92340    0.67894    0.81570    1.000
    N83      N        0.88330    0.41680    0.95742    1.000
    N84      N        0.88696    0.37502    0.99344    1.000
    N85      N        0.24175    0.89019    0.46735    1.000
    N86      N        0.23618    0.91758    0.48874    1.000
    N87      N        0.18210    0.82064    0.58076    1.000
    N88      N        0.18109    0.84569    0.60217    1.000
    N89      N        0.00959    0.81803    0.71641    1.000
    N90      N        0.03574    0.78762    0.74582    1.000
    N91      N        0.27160    0.04098    0.30852    1.000
    N92      N        0.22411    0.05391    0.31869    1.000
    N93      N        0.12109    0.82395    0.64331    1.000
    N94      N        0.08196    0.81570    0.67894    1.000
    N95      N        0.24248    0.95742    0.41680    1.000
    N96      N        0.24458    0.99344    0.37502    1.000
    N97      N        0.96735    0.74175    0.89019    1.000
    N98      N        0.98874    0.73618    0.91758    1.000
    N99      N        0.08076    0.68210    0.82064    1.000
    N100     N        0.10217    0.68109    0.84569    1.000
    N101     N        0.21641    0.50959    0.81803    1.000
    N102     N        0.24582    0.53574    0.78762    1.000
    N103     N        0.80852    0.77160    0.04098    1.000
    N104     N        0.81869    0.72411    0.05391    1.000
    N105     N        0.14331    0.62109    0.82395    1.000
    N106     N        0.17894    0.58196    0.81570    1.000
    N107     N        0.91680    0.74248    0.95742    1.000
    N108     N        0.87502    0.74458    0.99344    1.000
    N109     N        0.39019    0.40071    0.46735    1.000
    N110     N        0.41758    0.35750    0.48874    1.000
    N111     N        0.32064    0.41650    0.58076    1.000
    N112     N        0.34569    0.37105    0.60217    1.000
    N113     N        0.31803    0.45597    0.71641    1.000
    N114     N        0.28762    0.43082    0.74582    1.000
    N115     N        0.54098    0.37890    0.30852    1.000
    N116     N        0.55391    0.40329    0.31869    1.000
    N117     N        0.32395    0.41165    0.64331    1.000
    N118     N        0.31570    0.42340    0.67894    1.000
    N119     N        0.45742    0.38330    0.41680    1.000
    N120     N        0.49344    0.38696    0.37502    1.000
    N121     N        0.90071    0.89019    0.74175    1.000
    N122     N        0.85750    0.91758    0.73618    1.000
    N123     N        0.91650    0.82064    0.68210    1.000
    N124     N        0.87105    0.84569    0.68109    1.000
    N125     N        0.95597    0.81803    0.50959    1.000
    N126     N        0.93082    0.78762    0.53574    1.000
    N127     N        0.87890    0.04098    0.77160    1.000
    N128     N        0.90329    0.05391    0.72411    1.000
    N129     N        0.91165    0.82395    0.62109    1.000
    N130     N        0.92340    0.81570    0.58196    1.000
    N131     N        0.88330    0.95742    0.74248    1.000
    N132     N        0.88696    0.99344    0.74458    1.000
    N133     N        0.24175    0.46735    0.40071    1.000
    N134     N        0.23618    0.48874    0.35750    1.000
    N135     N        0.18210    0.58076    0.41650    1.000
    N136     N        0.18109    0.60217    0.37105    1.000
    N137     N        0.00959    0.71641    0.45597    1.000
    N138     N        0.03574    0.74582    0.43082    1.000
    N139     N        0.27160    0.30852    0.37890    1.000
    N140     N        0.22411    0.31869    0.40329    1.000
    N141     N        0.12109    0.64331    0.41165    1.000
    N142     N        0.08196    0.67894    0.42340    1.000
    N143     N        0.24248    0.41680    0.38330    1.000
    N144     N        0.24458    0.37502    0.38696    1.000
    N145     N        0.10981    0.03265    0.09929    1.000
    N146     N        0.08242    0.01126    0.14250    1.000
    N147     N        0.17936    0.91924    0.08350    1.000
    N148     N        0.15431    0.89783    0.12895    1.000
    N149     N        0.18197    0.78359    0.04403    1.000
    N150     N        0.21238    0.75418    0.06918    1.000
    N151     N        0.95902    0.19148    0.12110    1.000
    N152     N        0.94609    0.18131    0.09671    1.000
    N153     N        0.17605    0.85669    0.08835    1.000
    N154     N        0.18430    0.82106    0.07660    1.000
    N155     N        0.04258    0.08320    0.11670    1.000
    N156     N        0.00656    0.12498    0.11304    1.000
    N157     N        0.53265    0.60981    0.75825    1.000
    N158     N        0.51126    0.58242    0.76382    1.000
    N159     N        0.41924    0.67936    0.81790    1.000
    N160     N        0.39783    0.65431    0.81891    1.000
    N161     N        0.28359    0.68197    0.99041    1.000
    N162     N        0.25418    0.71238    0.96426    1.000
    N163     N        0.69148    0.45902    0.72840    1.000
    N164     N        0.68131    0.44609    0.77589    1.000
    N165     N        0.35669    0.67605    0.87891    1.000
    N166     N        0.32106    0.68430    0.91804    1.000
    N167     N        0.58320    0.54258    0.75752    1.000
    N168     N        0.62498    0.50656    0.75542    1.000
    N169     N        0.25825    0.09929    0.03265    1.000
    N170     N        0.26382    0.14250    0.01126    1.000
    N171     N        0.31790    0.08350    0.91924    1.000
    N172     N        0.31891    0.12895    0.89783    1.000
    N173     N        0.49041    0.04403    0.78359    1.000
    N174     N        0.46426    0.06918    0.75418    1.000
    N175     N        0.22840    0.12110    0.19148    1.000
    N176     N        0.27589    0.09671    0.18131    1.000
    N177     N        0.37891    0.08835    0.85669    1.000
    N178     N        0.41804    0.07660    0.82106    1.000
    N179     N        0.25752    0.11670    0.08320    1.000
    N180     N        0.25542    0.11304    0.12498    1.000
    N181     N        0.59929    0.75825    0.60981    1.000
    N182     N        0.64250    0.76382    0.58242    1.000
    N183     N        0.58350    0.81790    0.67936    1.000
    N184     N        0.62895    0.81891    0.65431    1.000
    N185     N        0.54403    0.99041    0.68197    1.000
    N186     N        0.56918    0.96426    0.71238    1.000
    N187     N        0.62110    0.72840    0.45902    1.000
    N188     N        0.59671    0.77589    0.44609    1.000
    N189     N        0.58835    0.87891    0.67605    1.000
    N190     N        0.57660    0.91804    0.68430    1.000
    N191     N        0.61670    0.75752    0.54258    1.000
    N192     N        0.61304    0.75542    0.50656    1.000
    N193     N        0.59929    0.03265    0.75825    1.000
    N194     N        0.64250    0.01126    0.76382    1.000
    N195     N        0.58350    0.91924    0.81790    1.000
    N196     N        0.62895    0.89783    0.81891    1.000
    N197     N        0.54403    0.78359    0.99041    1.000
    N198     N        0.56918    0.75418    0.96426    1.000
    N199     N        0.62110    0.19148    0.72840    1.000
    N200     N        0.59671    0.18131    0.77589    1.000
    N201     N        0.58835    0.85669    0.87891    1.000
    N202     N        0.57660    0.82106    0.91804    1.000
    N203     N        0.61670    0.08320    0.75752    1.000
    N204     N        0.61304    0.12498    0.75542    1.000
    N205     N        0.25825    0.60981    0.09929    1.000
    N206     N        0.26382    0.58242    0.14250    1.000
    N207     N        0.31790    0.67936    0.08350    1.000
    N208     N        0.31891    0.65431    0.12895    1.000
    N209     N        0.49041    0.68197    0.04403    1.000
    N210     N        0.46426    0.71238    0.06918    1.000
    N211     N        0.22840    0.45902    0.12110    1.000
    N212     N        0.27589    0.44609    0.09671    1.000
    N213     N        0.37891    0.67605    0.08835    1.000
    N214     N        0.41804    0.68430    0.07660    1.000
    N215     N        0.25752    0.54258    0.11670    1.000
    N216     N        0.25542    0.50656    0.11304    1.000
    N217     N        0.53265    0.09929    0.60981    1.000
    N218     N        0.51126    0.14250    0.58242    1.000
    N219     N        0.41924    0.08350    0.67936    1.000
    N220     N        0.39783    0.12895    0.65431    1.000
    N221     N        0.28359    0.04403    0.68197    1.000
    N222     N        0.25418    0.06918    0.71238    1.000
    N223     N        0.69148    0.12110    0.45902    1.000
    N224     N        0.68131    0.09671    0.44609    1.000
    N225     N        0.35669    0.08835    0.67605    1.000
    N226     N        0.32106    0.07660    0.68430    1.000
    N227     N        0.58320    0.11670    0.54258    1.000
    N228     N        0.62498    0.11304    0.50656    1.000
    N229     N        0.10981    0.75825    0.03265    1.000
    N230     N        0.08242    0.76382    0.01126    1.000
    N231     N        0.17936    0.81790    0.91924    1.000
    N232     N        0.15431    0.81891    0.89783    1.000
    N233     N        0.18197    0.99041    0.78359    1.000
    N234     N        0.21238    0.96426    0.75418    1.000
    N235     N        0.95902    0.72840    0.19148    1.000
    N236     N        0.94609    0.77589    0.18131    1.000
    N237     N        0.17605    0.87891    0.85669    1.000
    N238     N        0.18430    0.91804    0.82106    1.000
    N239     N        0.04258    0.75752    0.08320    1.000
    N240     N        0.00656    0.75542    0.12498    1.000
    N241     N        0.25825    0.03265    0.60981    1.000
    N242     N        0.26382    0.01126    0.58242    1.000
    N243     N        0.31790    0.91924    0.67936    1.000
    N244     N        0.31891    0.89783    0.65431    1.000
    N245     N        0.49041    0.78359    0.68197    1.000
    N246     N        0.46426    0.75418    0.71238    1.000
    N247     N        0.22840    0.19148    0.45902    1.000
    N248     N        0.27589    0.18131    0.44609    1.000
    N249     N        0.37891    0.85669    0.67605    1.000
    N250     N        0.41804    0.82106    0.68430    1.000
    N251     N        0.25752    0.08320    0.54258    1.000
    N252     N        0.25542    0.12498    0.50656    1.000
    N253     N        0.59929    0.60981    0.03265    1.000
    N254     N        0.64250    0.58242    0.01126    1.000
    N255     N        0.58350    0.67936    0.91924    1.000
    N256     N        0.62895    0.65431    0.89783    1.000
    N257     N        0.54403    0.68197    0.78359    1.000
    N258     N        0.56918    0.71238    0.75418    1.000
    N259     N        0.62110    0.45902    0.19148    1.000
    N260     N        0.59671    0.44609    0.18131    1.000
    N261     N        0.58835    0.67605    0.85669    1.000
    N262     N        0.57660    0.68430    0.82106    1.000
    N263     N        0.61670    0.54258    0.08320    1.000
    N264     N        0.61304    0.50656    0.12498    1.000
    N265     N        0.10981    0.09929    0.75825    1.000
    N266     N        0.08242    0.14250    0.76382    1.000
    N267     N        0.17936    0.08350    0.81790    1.000
    N268     N        0.15431    0.12895    0.81891    1.000
    N269     N        0.18197    0.04403    0.99041    1.000
    N270     N        0.21238    0.06918    0.96426    1.000
    N271     N        0.95902    0.12110    0.72840    1.000
    N272     N        0.94609    0.09671    0.77589    1.000
    N273     N        0.17605    0.08835    0.87891    1.000
    N274     N        0.18430    0.07660    0.91804    1.000
    N275     N        0.04258    0.11670    0.75752    1.000
    N276     N        0.00656    0.11304    0.75542    1.000
    N277     N        0.53265    0.75825    0.09929    1.000
    N278     N        0.51126    0.76382    0.14250    1.000
    N279     N        0.41924    0.81790    0.08350    1.000
    N280     N        0.39783    0.81891    0.12895    1.000
    N281     N        0.28359    0.99041    0.04403    1.000
    N282     N        0.25418    0.96426    0.06918    1.000
    N283     N        0.69148    0.72840    0.12110    1.000
    N284     N        0.68131    0.77589    0.09671    1.000
    N285     N        0.35669    0.87891    0.08835    1.000
    N286     N        0.32106    0.91804    0.07660    1.000
    N287     N        0.58320    0.75752    0.11670    1.000
    N288     N        0.62498    0.75542    0.11304    1.000
    N289     N        0.03265    0.10981    0.59929    1.000
    N290     N        0.01126    0.08242    0.64250    1.000
    N291     N        0.91924    0.17936    0.58350    1.000
    N292     N        0.89783    0.15431    0.62895    1.000
    N293     N        0.78359    0.18197    0.54403    1.000
    N294     N        0.75418    0.21238    0.56918    1.000
    N295     N        0.19148    0.95902    0.62110    1.000
    N296     N        0.18131    0.94609    0.59671    1.000
    N297     N        0.85669    0.17605    0.58835    1.000
    N298     N        0.82106    0.18430    0.57660    1.000
    N299     N        0.08320    0.04258    0.61670    1.000
    N300     N        0.12498    0.00656    0.61304    1.000
    N301     N        0.60981    0.53265    0.25825    1.000
    N302     N        0.58242    0.51126    0.26382    1.000
    N303     N        0.67936    0.41924    0.31790    1.000
    N304     N        0.65431    0.39783    0.31891    1.000
    N305     N        0.68197    0.28359    0.49041    1.000
    N306     N        0.71238    0.25418    0.46426    1.000
    N307     N        0.45902    0.69148    0.22840    1.000
    N308     N        0.44609    0.68131    0.27589    1.000
    N309     N        0.67605    0.35669    0.37891    1.000
    N310     N        0.68430    0.32106    0.41804    1.000
    N311     N        0.54258    0.58320    0.25752    1.000
    N312     N        0.50656    0.62498    0.25542    1.000
    N313     N        0.09929    0.25825    0.53265    1.000
    N314     N        0.14250    0.26382    0.51126    1.000
    N315     N        0.08350    0.31790    0.41924    1.000
    N316     N        0.12895    0.31891    0.39783    1.000
    N317     N        0.04403    0.49041    0.28359    1.000
    N318     N        0.06918    0.46426    0.25418    1.000
    N319     N        0.12110    0.22840    0.69148    1.000
    N320     N        0.09671    0.27589    0.68131    1.000
    N321     N        0.08835    0.37891    0.35669    1.000
    N322     N        0.07660    0.41804    0.32106    1.000
    N323     N        0.11670    0.25752    0.58320    1.000
    N324     N        0.11304    0.25542    0.62498    1.000
    N325     N        0.75825    0.59929    0.10981    1.000
    N326     N        0.76382    0.64250    0.08242    1.000
    N327     N        0.81790    0.58350    0.17936    1.000
    N328     N        0.81891    0.62895    0.15431    1.000
    N329     N        0.99041    0.54403    0.18197    1.000
    N330     N        0.96426    0.56918    0.21238    1.000
    N331     N        0.72840    0.62110    0.95902    1.000
    N332     N        0.77589    0.59671    0.94609    1.000
    N333     N        0.87891    0.58835    0.17605    1.000
    N334     N        0.91804    0.57660    0.18430    1.000
    N335     N        0.75752    0.61670    0.04258    1.000
    N336     N        0.75542    0.61304    0.00656    1.000
    N337     N        0.03265    0.59929    0.25825    1.000
    N338     N        0.01126    0.64250    0.26382    1.000
    N339     N        0.91924    0.58350    0.31790    1.000
    N340     N        0.89783    0.62895    0.31891    1.000
    N341     N        0.78359    0.54403    0.49041    1.000
    N342     N        0.75418    0.56918    0.46426    1.000
    N343     N        0.19148    0.62110    0.22840    1.000
    N344     N        0.18131    0.59671    0.27589    1.000
    N345     N        0.85669    0.58835    0.37891    1.000
    N346     N        0.82106    0.57660    0.41804    1.000
    N347     N        0.08320    0.61670    0.25752    1.000
    N348     N        0.12498    0.61304    0.25542    1.000
    N349     N        0.60981    0.25825    0.59929    1.000
    N350     N        0.58242    0.26382    0.64250    1.000
    N351     N        0.67936    0.31790    0.58350    1.000
    N352     N        0.65431    0.31891    0.62895    1.000
    N353     N        0.68197    0.49041    0.54403    1.000
    N354     N        0.71238    0.46426    0.56918    1.000
    N355     N        0.45902    0.22840    0.62110    1.000
    N356     N        0.44609    0.27589    0.59671    1.000
    N357     N        0.67605    0.37891    0.58835    1.000
    N358     N        0.68430    0.41804    0.57660    1.000
    N359     N        0.54258    0.25752    0.61670    1.000
    N360     N        0.50656    0.25542    0.61304    1.000
    N361     N        0.09929    0.53265    0.10981    1.000
    N362     N        0.14250    0.51126    0.08242    1.000
    N363     N        0.08350    0.41924    0.17936    1.000
    N364     N        0.12895    0.39783    0.15431    1.000
    N365     N        0.04403    0.28359    0.18197    1.000
    N366     N        0.06918    0.25418    0.21238    1.000
    N367     N        0.12110    0.69148    0.95902    1.000
    N368     N        0.09671    0.68131    0.94609    1.000
    N369     N        0.08835    0.35669    0.17605    1.000
    N370     N        0.07660    0.32106    0.18430    1.000
    N371     N        0.11670    0.58320    0.04258    1.000
    N372     N        0.11304    0.62498    0.00656    1.000
    N373     N        0.75825    0.10981    0.53265    1.000
    N374     N        0.76382    0.08242    0.51126    1.000
    N375     N        0.81790    0.17936    0.41924    1.000
    N376     N        0.81891    0.15431    0.39783    1.000
    N377     N        0.99041    0.18197    0.28359    1.000
    N378     N        0.96426    0.21238    0.25418    1.000
    N379     N        0.72840    0.95902    0.69148    1.000
    N380     N        0.77589    0.94609    0.68131    1.000
    N381     N        0.87891    0.17605    0.35669    1.000
    N382     N        0.91804    0.18430    0.32106    1.000
    N383     N        0.75752    0.04258    0.58320    1.000
    N384     N        0.75542    0.00656    0.62498    1.000
    N385     N        0.03265    0.25825    0.10981    1.000
    N386     N        0.01126    0.26382    0.08242    1.000
    N387     N        0.91924    0.31790    0.17936    1.000
    N388     N        0.89783    0.31891    0.15431    1.000
    N389     N        0.78359    0.49041    0.18197    1.000
    N390     N        0.75418    0.46426    0.21238    1.000
    N391     N        0.19148    0.22840    0.95902    1.000
    N392     N        0.18131    0.27589    0.94609    1.000
    N393     N        0.85669    0.37891    0.17605    1.000
    N394     N        0.82106    0.41804    0.18430    1.000
    N395     N        0.08320    0.25752    0.04258    1.000
    N396     N        0.12498    0.25542    0.00656    1.000
    N397     N        0.60981    0.59929    0.53265    1.000
    N398     N        0.58242    0.64250    0.51126    1.000
    N399     N        0.67936    0.58350    0.41924    1.000
    N400     N        0.65431    0.62895    0.39783    1.000
    N401     N        0.68197    0.54403    0.28359    1.000
    N402     N        0.71238    0.56918    0.25418    1.000
    N403     N        0.45902    0.62110    0.69148    1.000
    N404     N        0.44609    0.59671    0.68131    1.000
    N405     N        0.67605    0.58835    0.35669    1.000
    N406     N        0.68430    0.57660    0.32106    1.000
    N407     N        0.54258    0.61670    0.58320    1.000
    N408     N        0.50656    0.61304    0.62498    1.000
    N409     N        0.09929    0.10981    0.25825    1.000
    N410     N        0.14250    0.08242    0.26382    1.000
    N411     N        0.08350    0.17936    0.31790    1.000
    N412     N        0.12895    0.15431    0.31891    1.000
    N413     N        0.04403    0.18197    0.49041    1.000
    N414     N        0.06918    0.21238    0.46426    1.000
    N415     N        0.12110    0.95902    0.22840    1.000
    N416     N        0.09671    0.94609    0.27589    1.000
    N417     N        0.08835    0.17605    0.37891    1.000
    N418     N        0.07660    0.18430    0.41804    1.000
    N419     N        0.11670    0.04258    0.25752    1.000
    N420     N        0.11304    0.00656    0.25542    1.000
    N421     N        0.75825    0.53265    0.59929    1.000
    N422     N        0.76382    0.51126    0.64250    1.000
    N423     N        0.81790    0.41924    0.58350    1.000
    N424     N        0.81891    0.39783    0.62895    1.000
    N425     N        0.99041    0.28359    0.54403    1.000
    N426     N        0.96426    0.25418    0.56918    1.000
    N427     N        0.72840    0.69148    0.62110    1.000
    N428     N        0.77589    0.68131    0.59671    1.000
    N429     N        0.87891    0.35669    0.58835    1.000
    N430     N        0.91804    0.32106    0.57660    1.000
    N431     N        0.75752    0.58320    0.61670    1.000
    N432     N        0.75542    0.62498    0.61304    1.000
    N433     N        0.89019    0.96735    0.90071    1.000
    N434     N        0.91758    0.98874    0.85750    1.000
    N435     N        0.82064    0.08076    0.91650    1.000
    N436     N        0.84569    0.10217    0.87105    1.000
    N437     N        0.81803    0.21641    0.95597    1.000
    N438     N        0.78762    0.24582    0.93082    1.000
    N439     N        0.04098    0.80852    0.87890    1.000
    N440     N        0.05391    0.81869    0.90329    1.000
    N441     N        0.82395    0.14331    0.91165    1.000
    N442     N        0.81570    0.17894    0.92340    1.000
    N443     N        0.95742    0.91680    0.88330    1.000
    N444     N        0.99344    0.87502    0.88696    1.000
    N445     N        0.46735    0.39019    0.24175    1.000
    N446     N        0.48874    0.41758    0.23618    1.000
    N447     N        0.58076    0.32064    0.18210    1.000
    N448     N        0.60217    0.34569    0.18109    1.000
    N449     N        0.71641    0.31803    0.00959    1.000
    N450     N        0.74582    0.28762    0.03574    1.000
    N451     N        0.30852    0.54098    0.27160    1.000
    N452     N        0.31869    0.55391    0.22411    1.000
    N453     N        0.64331    0.32395    0.12109    1.000
    N454     N        0.67894    0.31570    0.08196    1.000
    N455     N        0.41680    0.45742    0.24248    1.000
    N456     N        0.37502    0.49344    0.24458    1.000
    N457     N        0.74175    0.90071    0.96735    1.000
    N458     N        0.73618    0.85750    0.98874    1.000
    N459     N        0.68210    0.91650    0.08076    1.000
    N460     N        0.68109    0.87105    0.10217    1.000
    N461     N        0.50959    0.95597    0.21641    1.000
    N462     N        0.53574    0.93082    0.24582    1.000
    N463     N        0.77160    0.87890    0.80852    1.000
    N464     N        0.72411    0.90329    0.81869    1.000
    N465     N        0.62109    0.91165    0.14331    1.000
    N466     N        0.58196    0.92340    0.17894    1.000
    N467     N        0.74248    0.88330    0.91680    1.000
    N468     N        0.74458    0.88696    0.87502    1.000
    N469     N        0.40071    0.24175    0.39019    1.000
    N470     N        0.35750    0.23618    0.41758    1.000
    N471     N        0.41650    0.18210    0.32064    1.000
    N472     N        0.37105    0.18109    0.34569    1.000
    N473     N        0.45597    0.00959    0.31803    1.000
    N474     N        0.43082    0.03574    0.28762    1.000
    N475     N        0.37890    0.27160    0.54098    1.000
    N476     N        0.40329    0.22411    0.55391    1.000
    N477     N        0.41165    0.12109    0.32395    1.000
    N478     N        0.42340    0.08196    0.31570    1.000
    N479     N        0.38330    0.24248    0.45742    1.000
    N480     N        0.38696    0.24458    0.49344    1.000
    N481     N        0.40071    0.96735    0.24175    1.000
    N482     N        0.35750    0.98874    0.23618    1.000
    N483     N        0.41650    0.08076    0.18210    1.000
    N484     N        0.37105    0.10217    0.18109    1.000
    N485     N        0.45597    0.21641    0.00959    1.000
    N486     N        0.43082    0.24582    0.03574    1.000
    N487     N        0.37890    0.80852    0.27160    1.000
    N488     N        0.40329    0.81869    0.22411    1.000
    N489     N        0.41165    0.14331    0.12109    1.000
    N490     N        0.42340    0.17894    0.08196    1.000
    N491     N        0.38330    0.91680    0.24248    1.000
    N492     N        0.38696    0.87502    0.24458    1.000
    N493     N        0.74175    0.39019    0.90071    1.000
    N494     N        0.73618    0.41758    0.85750    1.000
    N495     N        0.68210    0.32064    0.91650    1.000
    N496     N        0.68109    0.34569    0.87105    1.000
    N497     N        0.50959    0.31803    0.95597    1.000
    N498     N        0.53574    0.28762    0.93082    1.000
    N499     N        0.77160    0.54098    0.87890    1.000
    N500     N        0.72411    0.55391    0.90329    1.000
    N501     N        0.62109    0.32395    0.91165    1.000
    N502     N        0.58196    0.31570    0.92340    1.000
    N503     N        0.74248    0.45742    0.88330    1.000
    N504     N        0.74458    0.49344    0.88696    1.000
    N505     N        0.46735    0.90071    0.39019    1.000
    N506     N        0.48874    0.85750    0.41758    1.000
    N507     N        0.58076    0.91650    0.32064    1.000
    N508     N        0.60217    0.87105    0.34569    1.000
    N509     N        0.71641    0.95597    0.31803    1.000
    N510     N        0.74582    0.93082    0.28762    1.000
    N511     N        0.30852    0.87890    0.54098    1.000
    N512     N        0.31869    0.90329    0.55391    1.000
    N513     N        0.64331    0.91165    0.32395    1.000
    N514     N        0.67894    0.92340    0.31570    1.000
    N515     N        0.41680    0.88330    0.45742    1.000
    N516     N        0.37502    0.88696    0.49344    1.000
    N517     N        0.89019    0.24175    0.96735    1.000
    N518     N        0.91758    0.23618    0.98874    1.000
    N519     N        0.82064    0.18210    0.08076    1.000
    N520     N        0.84569    0.18109    0.10217    1.000
    N521     N        0.81803    0.00959    0.21641    1.000
    N522     N        0.78762    0.03574    0.24582    1.000
    N523     N        0.04098    0.27160    0.80852    1.000
    N524     N        0.05391    0.22411    0.81869    1.000
    N525     N        0.82395    0.12109    0.14331    1.000
    N526     N        0.81570    0.08196    0.17894    1.000
    N527     N        0.95742    0.24248    0.91680    1.000
    N528     N        0.99344    0.24458    0.87502    1.000
    N529     N        0.74175    0.96735    0.39019    1.000
    N530     N        0.73618    0.98874    0.41758    1.000
    N531     N        0.68210    0.08076    0.32064    1.000
    N532     N        0.68109    0.10217    0.34569    1.000
    N533     N        0.50959    0.21641    0.31803    1.000
    N534     N        0.53574    0.24582    0.28762    1.000
    N535     N        0.77160    0.80852    0.54098    1.000
    N536     N        0.72411    0.81869    0.55391    1.000
    N537     N        0.62109    0.14331    0.32395    1.000
    N538     N        0.58196    0.17894    0.31570    1.000
    N539     N        0.74248    0.91680    0.45742    1.000
    N540     N        0.74458    0.87502    0.49344    1.000
    N541     N        0.40071    0.39019    0.96735    1.000
    N542     N        0.35750    0.41758    0.98874    1.000
    N543     N        0.41650    0.32064    0.08076    1.000
    N544     N        0.37105    0.34569    0.10217    1.000
    N545     N        0.45597    0.31803    0.21641    1.000
    N546     N        0.43082    0.28762    0.24582    1.000
    N547     N        0.37890    0.54098    0.80852    1.000
    N548     N        0.40329    0.55391    0.81869    1.000
    N549     N        0.41165    0.32395    0.14331    1.000
    N550     N        0.42340    0.31570    0.17894    1.000
    N551     N        0.38330    0.45742    0.91680    1.000
    N552     N        0.38696    0.49344    0.87502    1.000
    N553     N        0.89019    0.90071    0.24175    1.000
    N554     N        0.91758    0.85750    0.23618    1.000
    N555     N        0.82064    0.91650    0.18210    1.000
    N556     N        0.84569    0.87105    0.18109    1.000
    N557     N        0.81803    0.95597    0.00959    1.000
    N558     N        0.78762    0.93082    0.03574    1.000
    N559     N        0.04098    0.87890    0.27160    1.000
    N560     N        0.05391    0.90329    0.22411    1.000
    N561     N        0.82395    0.91165    0.12109    1.000
    N562     N        0.81570    0.92340    0.08196    1.000
    N563     N        0.95742    0.88330    0.24248    1.000
    N564     N        0.99344    0.88696    0.24458    1.000
    N565     N        0.46735    0.24175    0.90071    1.000
    N566     N        0.48874    0.23618    0.85750    1.000
    N567     N        0.58076    0.18210    0.91650    1.000
    N568     N        0.60217    0.18109    0.87105    1.000
    N569     N        0.71641    0.00959    0.95597    1.000
    N570     N        0.74582    0.03574    0.93082    1.000
    N571     N        0.30852    0.27160    0.87890    1.000
    N572     N        0.31869    0.22411    0.90329    1.000
    N573     N        0.64331    0.12109    0.91165    1.000
    N574     N        0.67894    0.08196    0.92340    1.000
    N575     N        0.41680    0.24248    0.88330    1.000
    N576     N        0.37502    0.24458    0.88696    1.000
