# CIF file generated by openbabel 3.1.0, see https://openbabel.org
data_I
_chemical_name_common 'image0'
_cell_length_a 16.285
_cell_length_b 11.9314
_cell_length_c 12.2099
_cell_angle_alpha 90
_cell_angle_beta 90
_cell_angle_gamma 90
_space_group_name_H-M_alt 'P 1'
_space_group_name_Hall 'P 1'
loop_
    _symmetry_equiv_pos_as_xyz
    x,y,z
loop_
    _atom_site_label
    _atom_site_type_symbol
    _atom_site_fract_x
    _atom_site_fract_y
    _atom_site_fract_z
    _atom_site_occupancy
    Eu1      Eu       0.97045    0.16060    0.28216    1.000
    Br1      Br       0.96990    0.19500    0.51500    1.000
    Cl1      Cl       0.98730    0.20450    0.50000    1.000
    S1       S        0.79013    0.52080    0.52090    1.000
    O1       O        0.91650    0.35300    0.30200    1.000
    O2       O        0.92270    0.73590    0.21530    1.000
    C1       C        0.65090    0.50300    0.64170    1.000
    O3       O        0.66840    0.59950    0.67760    1.000
    O4       O        0.58060    0.46190    0.65870    1.000
    O5       O        0.91400    0.52840    0.35740    1.000
    C2       C        0.87240    0.68870    0.15340    1.000
    O6       O        0.87590    0.58680    0.12820    1.000
    C3       C        0.70900    0.44480    0.57160    1.000
    C4       C        0.82000    0.40970    0.44290    1.000
    C5       C        0.88820    0.42960    0.36530    1.000
    C6       C        0.70650    0.33940    0.52850    1.000
    H1       H        0.66580    0.28540    0.54650    1.000
    C7       C        0.80210    0.75300    0.10850    1.000
    S2       S        0.73328    0.68540    0.02360    1.000
    O7       O        0.55560    0.88520    0.94110    1.000
    O8       O        0.59440    0.71800    0.88130    1.000
    C8       C        0.60330    0.80410    0.93650    1.000
    C9       C        0.71080    0.89390    0.06460    1.000
    H2       H        0.68840    0.96740    0.06600    1.000
    C10      C        0.67620    0.80520    0.00850    1.000
    C11      C        0.77100    0.31970    0.45430    1.000
    H3       H        0.77910    0.25090    0.41670    1.000
    C12      C        0.78350    0.86220    0.11980    1.000
    H4       H        0.81620    0.91310    0.16080    1.000
    Eu2      Eu       0.02955    0.83940    0.28216    1.000
    Br2      Br       0.03010    0.80500    0.51500    1.000
    Cl2      Cl       0.01270    0.79550    0.50000    1.000
    S3       S        0.20987    0.47920    0.52090    1.000
    O9       O        0.08350    0.64700    0.30200    1.000
    O10      O        0.07730    0.26410    0.21530    1.000
    C13      C        0.34910    0.49700    0.64170    1.000
    O11      O        0.33160    0.40050    0.67760    1.000
    O12      O        0.41940    0.53810    0.65870    1.000
    O13      O        0.08600    0.47160    0.35740    1.000
    C14      C        0.12760    0.31130    0.15340    1.000
    O14      O        0.12410    0.41320    0.12820    1.000
    C15      C        0.29100    0.55520    0.57160    1.000
    C16      C        0.18000    0.59030    0.44290    1.000
    C17      C        0.11180    0.57040    0.36530    1.000
    C18      C        0.29350    0.66060    0.52850    1.000
    H5       H        0.33420    0.71460    0.54650    1.000
    C19      C        0.19790    0.24700    0.10850    1.000
    S4       S        0.26672    0.31460    0.02360    1.000
    O15      O        0.44440    0.11480    0.94110    1.000
    O16      O        0.40560    0.28200    0.88130    1.000
    C20      C        0.39670    0.19590    0.93650    1.000
    C21      C        0.28920    0.10610    0.06460    1.000
    H6       H        0.31160    0.03260    0.06600    1.000
    C22      C        0.32380    0.19480    0.00850    1.000
    C23      C        0.22900    0.68030    0.45430    1.000
    H7       H        0.22090    0.74910    0.41670    1.000
    C24      C        0.21650    0.13780    0.11980    1.000
    H8       H        0.18380    0.08690    0.16080    1.000
    Eu3      Eu       0.52955    0.66060    0.71784    1.000
    Br3      Br       0.53010    0.69500    0.48500    1.000
    Cl3      Cl       0.51270    0.70450    0.50000    1.000
    S5       S        0.70987    0.02080    0.47910    1.000
    O17      O        0.58350    0.85300    0.69800    1.000
    O18      O        0.57730    0.23590    0.78470    1.000
    C25      C        0.84910    0.00300    0.35830    1.000
    O19      O        0.83160    0.09950    0.32240    1.000
    O20      O        0.91940    0.96190    0.34130    1.000
    O21      O        0.58600    0.02840    0.64260    1.000
    C26      C        0.62760    0.18870    0.84660    1.000
    O22      O        0.62410    0.08680    0.87180    1.000
    C27      C        0.79100    0.94480    0.42840    1.000
    C28      C        0.68000    0.90970    0.55710    1.000
    C29      C        0.61180    0.92960    0.63470    1.000
    C30      C        0.79350    0.83940    0.47150    1.000
    H9       H        0.83420    0.78540    0.45350    1.000
    C31      C        0.69790    0.25300    0.89150    1.000
    S6       S        0.76672    0.18540    0.97640    1.000
    O23      O        0.94440    0.38520    0.05890    1.000
    O24      O        0.90560    0.21800    0.11870    1.000
    C32      C        0.89670    0.30410    0.06350    1.000
    C33      C        0.78920    0.39390    0.93540    1.000
    H10      H        0.81160    0.46740    0.93400    1.000
    C34      C        0.82380    0.30520    0.99150    1.000
    C35      C        0.72900    0.81970    0.54570    1.000
    H11      H        0.72090    0.75090    0.58330    1.000
    C36      C        0.71650    0.36220    0.88020    1.000
    H12      H        0.68380    0.41310    0.83920    1.000
    Eu4      Eu       0.47045    0.33940    0.71784    1.000
    Br4      Br       0.46990    0.30500    0.48500    1.000
    Cl4      Cl       0.48730    0.29550    0.50000    1.000
    S7       S        0.29013    0.97920    0.47910    1.000
    O25      O        0.41650    0.14700    0.69800    1.000
    O26      O        0.42270    0.76410    0.78470    1.000
    C37      C        0.15090    0.99700    0.35830    1.000
    O27      O        0.16840    0.90050    0.32240    1.000
    O28      O        0.08060    0.03810    0.34130    1.000
    O29      O        0.41400    0.97160    0.64260    1.000
    C38      C        0.37240    0.81130    0.84660    1.000
    O30      O        0.37590    0.91320    0.87180    1.000
    C39      C        0.20900    0.05520    0.42840    1.000
    C40      C        0.32000    0.09030    0.55710    1.000
    C41      C        0.38820    0.07040    0.63470    1.000
    C42      C        0.20650    0.16060    0.47150    1.000
    H13      H        0.16580    0.21460    0.45350    1.000
    C43      C        0.30210    0.74700    0.89150    1.000
    S8       S        0.23328    0.81460    0.97640    1.000
    O31      O        0.05560    0.61480    0.05890    1.000
    O32      O        0.09440    0.78200    0.11870    1.000
    C44      C        0.10330    0.69590    0.06350    1.000
    C45      C        0.21080    0.60610    0.93540    1.000
    H14      H        0.18840    0.53260    0.93400    1.000
    C46      C        0.17620    0.69480    0.99150    1.000
    C47      C        0.27100    0.18030    0.54570    1.000
    H15      H        0.27910    0.24910    0.58330    1.000
    C48      C        0.28350    0.63780    0.88020    1.000
    H16      H        0.31620    0.58690    0.83920    1.000
    Eu5      Eu       0.00000    0.50000    0.19727    1.000
    Eu6      Eu       0.50000    0.00000    0.80273    1.000
    Cl5      Cl       0.00000    0.00000    0.11970    1.000
    Cl6      Cl       0.50000    0.50000    0.88030    1.000
