# CIF file generated by openbabel 3.1.0, see https://openbabel.org
data_I
_chemical_name_common 'REGJIW_clean'
_cell_length_a 5.506
_cell_length_b 7.946
_cell_length_c 7.946
_cell_angle_alpha 108.1
_cell_angle_beta 90.2231
_cell_angle_gamma 90.2231
_space_group_name_H-M_alt 'P 1'
_space_group_name_Hall 'P 1'
loop_
    _symmetry_equiv_pos_as_xyz
    x,y,z
loop_
    _atom_site_label
    _atom_site_type_symbol
    _atom_site_fract_x
    _atom_site_fract_y
    _atom_site_fract_z
    _atom_site_occupancy
    Co1      Co       0.50000    0.00000    0.00000    1.000
    Co2      Co       0.00000    0.12055    0.87945    1.000
    Co3      Co       0.00000    0.87945    0.12055    1.000
    H1       H        0.16420    0.82130    0.82130    1.000
    H2       H        0.83580    0.17870    0.17870    1.000
    C1       C        0.34170    0.05170    0.56710    1.000
    C2       C        0.57500    0.99230    0.61570    1.000
    C3       C        0.65830    0.43290    0.94830    1.000
    C4       C        0.42500    0.38430    0.00770    1.000
    C5       C        0.65830    0.94830    0.43290    1.000
    C6       C        0.42500    0.00770    0.38430    1.000
    C7       C        0.34170    0.56710    0.05170    1.000
    C8       C        0.57500    0.61570    0.99230    1.000
    O1       O        0.15090    0.11760    0.64320    1.000
    O2       O        0.67140    0.98145    0.75675    1.000
    O3       O        0.84910    0.35680    0.88240    1.000
    O4       O        0.32860    0.24325    0.01855    1.000
    O5       O        0.84910    0.88240    0.35680    1.000
    O6       O        0.32860    0.01855    0.24325    1.000
    O7       O        0.15090    0.64320    0.11760    1.000
    O8       O        0.67140    0.75675    0.98145    1.000
    O9       O        0.17530    0.89860    0.89860    1.000
    O10      O        0.82470    0.10140    0.10140    1.000
