# CIF file generated by openbabel 3.1.0, see https://openbabel.org
data_I
_chemical_name_common 'EGELUY01_manual'
_cell_length_a 6.6218
_cell_length_b 16.2148
_cell_length_c 13.5886
_cell_angle_alpha 90
_cell_angle_beta 90
_cell_angle_gamma 90
_space_group_name_H-M_alt 'P 1'
_space_group_name_Hall 'P 1'
loop_
    _symmetry_equiv_pos_as_xyz
    x,y,z
loop_
    _atom_site_label
    _atom_site_type_symbol
    _atom_site_fract_x
    _atom_site_fract_y
    _atom_site_fract_z
    _atom_site_occupancy
    C1       C        0.81356    0.03438    0.96783    1.000
    O2       O        0.16601    0.17184    0.83543    1.000
    H3       H        0.67034    0.05881    0.94342    1.000
    C4       C        0.31405    0.53464    0.46750    1.000
    O5       O        0.66825    0.67180    0.33554    1.000
    H6       H        0.17122    0.55915    0.44260    1.000
    C7       C        0.17751    0.46740    0.96962    1.000
    O8       O        0.82258    0.33077    0.83719    1.000
    H9       H        0.32034    0.44244    0.94536    1.000
    C10      C        0.67797    0.96756    0.47005    1.000
    O11      O        0.32478    0.83063    0.33721    1.000
    H12      H        0.82117    0.94268    0.44620    1.000
    C13      C        0.17802    0.53555    0.03414    1.000
    O14      O        0.82463    0.67255    0.16686    1.000
    H15      H        0.32122    0.56036    0.05813    1.000
    C16      C        0.67745    0.03601    0.53410    1.000
    O17      O        0.32248    0.17285    0.66604    1.000
    H18      H        0.82025    0.06116    0.55813    1.000
    C19      C        0.81416    0.96665    0.03287    1.000
    O20      O        0.16809    0.83140    0.16746    1.000
    H21      H        0.67135    0.94166    0.05713    1.000
    C22      C        0.31346    0.46700    0.53273    1.000
    O23      O        0.66579    0.33132    0.66775    1.000
    H24      H        0.17027    0.44223    0.55671    1.000
    C25      C        0.17786    0.96695    0.03264    1.000
    O26      O        0.82498    0.83086    0.16671    1.000
    H27      H        0.32106    0.94220    0.05668    1.000
    C28      C        0.67714    0.46697    0.53339    1.000
    O29      O        0.32265    0.33102    0.66679    1.000
    H30      H        0.81992    0.44216    0.55792    1.000
    C31      C        0.81435    0.53577    0.03441    1.000
    O32      O        0.16820    0.67251    0.16704    1.000
    H33      H        0.67154    0.56074    0.05862    1.000
    C34      C        0.31375    0.03573    0.53383    1.000
    O35      O        0.66595    0.17272    0.66692    1.000
    H36      H        0.17056    0.06060    0.55765    1.000
    C37      C        0.81384    0.46766    0.96991    1.000
    O38      O        0.16590    0.33088    0.83633    1.000
    H39      H        0.67064    0.44295    0.94588    1.000
    C40      C        0.31427    0.96732    0.46981    1.000
    O41      O        0.66801    0.83070    0.33700    1.000
    H42      H        0.17145    0.94226    0.44575    1.000
    C43      C        0.17728    0.03469    0.96755    1.000
    O44      O        0.82251    0.17213    0.83641    1.000
    H45      H        0.32008    0.05940    0.94292    1.000
    C46      C        0.67773    0.53460    0.46811    1.000
    O47      O        0.32472    0.67232    0.33626    1.000
    H48      H        0.82092    0.55909    0.44375    1.000
    Al49     Al       0.24389    0.25169    0.75134    1.000
    Al50     Al       0.74409    0.25175    0.75206    1.000
    Al51     Al       0.74585    0.75182    0.25153    1.000
    Al52     Al       0.24601    0.75185    0.25188    1.000
    O53      O        0.99362    0.25219    0.69900    1.000
    O54      O        0.49579    0.75299    0.19897    1.000
    O55      O        0.99578    0.75251    0.30440    1.000
    O56      O        0.49363    0.25163    0.80446    1.000
    C57      C        0.99625    0.93167    0.06659    1.000
    C58      C        0.99656    0.86012    0.13765    1.000
    C59      C        0.49502    0.43188    0.56694    1.000
    C60      C        0.49444    0.36024    0.63793    1.000
    C61      C        0.99639    0.57119    0.06756    1.000
    C62      C        0.99648    0.64336    0.13781    1.000
    C63      C        0.49528    0.07153    0.56703    1.000
    C64      C        0.49452    0.14369    0.63723    1.000
    C65      C        0.99536    0.43201    0.93645    1.000
    C66      C        0.99456    0.35995    0.86603    1.000
    C67      C        0.49633    0.93181    0.43681    1.000
    C68      C        0.49645    0.85973    0.36646    1.000
    C69      C        0.99511    0.07012    0.93451    1.000
    C70      C        0.99449    0.14262    0.86478    1.000
    C71      C        0.49613    0.57017    0.43453    1.000
    C72      C        0.49649    0.64266    0.36475    1.000
    H73      H        0.49329    0.25148    0.86792    1.000
    H74      H        0.99328    0.25295    0.63556    1.000
    H75      H        0.99561    0.75342    0.36783    1.000
    H76      H        0.49563    0.75467    0.13555    1.000
