# CIF file generated by openbabel 3.1.0, see https://openbabel.org
data_I
_chemical_name_common 'image0'
_cell_length_a 12.4957
_cell_length_b 15.3163
_cell_length_c 24.254
_cell_angle_alpha 90
_cell_angle_beta 102.304
_cell_angle_gamma 90
_space_group_name_H-M_alt 'P 1'
_space_group_name_Hall 'P 1'
loop_
    _symmetry_equiv_pos_as_xyz
    x,y,z
loop_
    _atom_site_label
    _atom_site_type_symbol
    _atom_site_fract_x
    _atom_site_fract_y
    _atom_site_fract_z
    _atom_site_occupancy
    C1       C        0.36600    0.47770    0.26012    1.000
    C2       C        0.32272    0.40525    0.22071    1.000
    C3       C        0.22850    0.41778    0.17842    1.000
    H1       H        0.19200    0.47110    0.17550    1.000
    C4       C        0.18947    0.35131    0.14096    1.000
    C5       C        0.24600    0.27389    0.14511    1.000
    H2       H        0.22160    0.22950    0.11940    1.000
    C6       C        0.33990    0.26079    0.18750    1.000
    C7       C        0.37620    0.32655    0.22529    1.000
    H3       H        0.43740    0.31770    0.25410    1.000
    C8       C        0.40450    0.17772    0.18945    1.000
    C9       C        0.09056    0.36728    0.09489    1.000
    C10      C        0.08692    0.44063    0.06228    1.000
    H4       H        0.14520    0.47960    0.07060    1.000
    C11      C        0.00032    0.46004    0.01725    1.000
    C12      C        0.91318    0.39968    0.00763    1.000
    H5       H        0.85370    0.41000    0.97800    1.000
    C13      C        0.91235    0.32587    0.04032    1.000
    C14      C        0.00160    0.30760    0.08502    1.000
    C15      C        0.81701    0.26371    0.02862    1.000
    C16      C        0.78210    0.22622    0.97552    1.000
    H6       H        0.81430    0.24320    0.94600    1.000
    C17      C        0.69910    0.16338    0.96608    1.000
    C18      C        0.65090    0.13875    0.00991    1.000
    H7       H        0.59810    0.09500    0.00430    1.000
    C19      C        0.68070    0.17875    0.06236    1.000
    C20      C        0.76280    0.24115    0.07121    1.000
    H8       H        0.78210    0.26850    0.10620    1.000
    C21      C        0.66280    0.11977    0.90916    1.000
    C22      C        0.62830    0.15130    0.10950    1.000
    N1       N        0.00430    0.23393    0.11780    1.000
    H9       H        0.95060    0.19770    0.11120    1.000
    H10      H        0.05980    0.22420    0.14490    1.000
    O1       O        0.45556    0.46141    0.29452    1.000
    O2       O        0.31470    0.54711    0.25678    1.000
    O3       O        0.48737    0.16775    0.22820    1.000
    O4       O        0.37003    0.12233    0.15150    1.000
    O5       O        0.64430    0.19544    0.15284    1.000
    O6       O        0.57025    0.08237    0.10072    1.000
    O7       O        0.61091    0.04908    0.91116    1.000
    O8       O        0.68280    0.15324    0.86612    1.000
    Zn1      Zn       0.52892    0.53079    0.35635    1.000
    Zn2      Zn       0.34189    0.67874    0.26134    1.000
    C23      C        0.63400    0.97770    0.23988    1.000
    C24      C        0.67728    0.90525    0.27929    1.000
    C25      C        0.77150    0.91778    0.32158    1.000
    H11      H        0.80800    0.97110    0.32450    1.000
    C26      C        0.81053    0.85131    0.35904    1.000
    C27      C        0.75400    0.77389    0.35489    1.000
    H12      H        0.77840    0.72950    0.38060    1.000
    C28      C        0.66010    0.76079    0.31250    1.000
    C29      C        0.62380    0.82655    0.27471    1.000
    H13      H        0.56260    0.81770    0.24590    1.000
    C30      C        0.59550    0.67772    0.31055    1.000
    C31      C        0.90944    0.86728    0.40511    1.000
    C32      C        0.91308    0.94063    0.43772    1.000
    H14      H        0.85480    0.97960    0.42940    1.000
    C33      C        0.99968    0.96004    0.48275    1.000
    C34      C        0.08682    0.89968    0.49237    1.000
    H15      H        0.14630    0.91000    0.52200    1.000
    C35      C        0.08765    0.82587    0.45968    1.000
    C36      C        0.99840    0.80760    0.41498    1.000
    C37      C        0.18299    0.76371    0.47138    1.000
    C38      C        0.21790    0.72622    0.52448    1.000
    H16      H        0.18570    0.74320    0.55400    1.000
    C39      C        0.30090    0.66338    0.53392    1.000
    C40      C        0.34910    0.63875    0.49009    1.000
    H17      H        0.40190    0.59500    0.49570    1.000
    C41      C        0.31930    0.67875    0.43764    1.000
    C42      C        0.23720    0.74115    0.42879    1.000
    H18      H        0.21790    0.76850    0.39380    1.000
    C43      C        0.33720    0.61977    0.59084    1.000
    C44      C        0.37170    0.65130    0.39050    1.000
    N2       N        0.99570    0.73393    0.38220    1.000
    H19      H        0.04940    0.69770    0.38880    1.000
    H20      H        0.94020    0.72420    0.35510    1.000
    O9       O        0.54444    0.96141    0.20548    1.000
    O10      O        0.68530    0.04711    0.24322    1.000
    O11      O        0.51263    0.66775    0.27180    1.000
    O12      O        0.62997    0.62233    0.34850    1.000
    O13      O        0.35570    0.69544    0.34716    1.000
    O14      O        0.42975    0.58237    0.39928    1.000
    O15      O        0.38909    0.54908    0.58884    1.000
    O16      O        0.31720    0.65324    0.63388    1.000
    Zn3      Zn       0.47108    0.03079    0.14365    1.000
    Zn4      Zn       0.65811    0.17874    0.23866    1.000
    C45      C        0.63400    0.52230    0.73988    1.000
    C46      C        0.67728    0.59475    0.77929    1.000
    C47      C        0.77150    0.58222    0.82158    1.000
    H21      H        0.80800    0.52890    0.82450    1.000
    C48      C        0.81053    0.64869    0.85904    1.000
    C49      C        0.75400    0.72611    0.85489    1.000
    H22      H        0.77840    0.77050    0.88060    1.000
    C50      C        0.66010    0.73921    0.81250    1.000
    C51      C        0.62380    0.67345    0.77471    1.000
    H23      H        0.56260    0.68230    0.74590    1.000
    C52      C        0.59550    0.82228    0.81055    1.000
    C53      C        0.90944    0.63272    0.90511    1.000
    C54      C        0.91308    0.55937    0.93772    1.000
    H24      H        0.85480    0.52040    0.92940    1.000
    C55      C        0.99968    0.53996    0.98275    1.000
    C56      C        0.08682    0.60032    0.99237    1.000
    H25      H        0.14630    0.59000    0.02200    1.000
    C57      C        0.08765    0.67413    0.95968    1.000
    C58      C        0.99840    0.69240    0.91498    1.000
    C59      C        0.18299    0.73629    0.97138    1.000
    C60      C        0.21790    0.77378    0.02448    1.000
    H26      H        0.18570    0.75680    0.05400    1.000
    C61      C        0.30090    0.83662    0.03392    1.000
    C62      C        0.34910    0.86125    0.99009    1.000
    H27      H        0.40190    0.90500    0.99570    1.000
    C63      C        0.31930    0.82125    0.93764    1.000
    C64      C        0.23720    0.75885    0.92879    1.000
    H28      H        0.21790    0.73150    0.89380    1.000
    C65      C        0.33720    0.88023    0.09084    1.000
    C66      C        0.37170    0.84870    0.89050    1.000
    N3       N        0.99570    0.76607    0.88220    1.000
    H29      H        0.04940    0.80230    0.88880    1.000
    H30      H        0.94020    0.77580    0.85510    1.000
    O17      O        0.54444    0.53859    0.70548    1.000
    O18      O        0.68530    0.45289    0.74322    1.000
    O19      O        0.51263    0.83225    0.77180    1.000
    O20      O        0.62997    0.87767    0.84850    1.000
    O21      O        0.35570    0.80456    0.84716    1.000
    O22      O        0.42975    0.91763    0.89928    1.000
    O23      O        0.38909    0.95092    0.08884    1.000
    O24      O        0.31720    0.84676    0.13388    1.000
    Zn5      Zn       0.47108    0.46921    0.64365    1.000
    Zn6      Zn       0.65811    0.32126    0.73866    1.000
    C67      C        0.36600    0.02230    0.76012    1.000
    C68      C        0.32272    0.09475    0.72071    1.000
    C69      C        0.22850    0.08222    0.67842    1.000
    H31      H        0.19200    0.02890    0.67550    1.000
    C70      C        0.18947    0.14869    0.64096    1.000
    C71      C        0.24600    0.22611    0.64511    1.000
    H32      H        0.22160    0.27050    0.61940    1.000
    C72      C        0.33990    0.23921    0.68750    1.000
    C73      C        0.37620    0.17345    0.72529    1.000
    H33      H        0.43740    0.18230    0.75410    1.000
    C74      C        0.40450    0.32228    0.68945    1.000
    C75      C        0.09056    0.13272    0.59489    1.000
    C76      C        0.08692    0.05937    0.56228    1.000
    H34      H        0.14520    0.02040    0.57060    1.000
    C77      C        0.00032    0.03996    0.51725    1.000
    C78      C        0.91318    0.10032    0.50763    1.000
    H35      H        0.85370    0.09000    0.47800    1.000
    C79      C        0.91235    0.17413    0.54032    1.000
    C80      C        0.00160    0.19240    0.58502    1.000
    C81      C        0.81701    0.23629    0.52862    1.000
    C82      C        0.78210    0.27378    0.47552    1.000
    H36      H        0.81430    0.25680    0.44600    1.000
    C83      C        0.69910    0.33662    0.46608    1.000
    C84      C        0.65090    0.36125    0.50991    1.000
    H37      H        0.59810    0.40500    0.50430    1.000
    C85      C        0.68070    0.32125    0.56236    1.000
    C86      C        0.76280    0.25885    0.57121    1.000
    H38      H        0.78210    0.23150    0.60620    1.000
    C87      C        0.66280    0.38023    0.40916    1.000
    C88      C        0.62830    0.34870    0.60950    1.000
    N4       N        0.00430    0.26607    0.61780    1.000
    H39      H        0.95060    0.30230    0.61120    1.000
    H40      H        0.05980    0.27580    0.64490    1.000
    O25      O        0.45556    0.03859    0.79452    1.000
    O26      O        0.31470    0.95289    0.75678    1.000
    O27      O        0.48737    0.33225    0.72820    1.000
    O28      O        0.37003    0.37767    0.65150    1.000
    O29      O        0.64430    0.30456    0.65284    1.000
    O30      O        0.57025    0.41763    0.60072    1.000
    O31      O        0.61091    0.45092    0.41116    1.000
    O32      O        0.68280    0.34676    0.36612    1.000
    Zn7      Zn       0.52892    0.96921    0.85635    1.000
    Zn8      Zn       0.34189    0.82126    0.76134    1.000
