# CIF file generated by openbabel 3.1.0, see https://openbabel.org
data_I
_chemical_name_common 'image0'
_cell_length_a 6.4041
_cell_length_b 17.6252
_cell_length_c 7.7271
_cell_angle_alpha 90
_cell_angle_beta 95.586
_cell_angle_gamma 90
_space_group_name_H-M_alt 'P 1'
_space_group_name_Hall 'P 1'
loop_
    _symmetry_equiv_pos_as_xyz
    x,y,z
loop_
    _atom_site_label
    _atom_site_type_symbol
    _atom_site_fract_x
    _atom_site_fract_y
    _atom_site_fract_z
    _atom_site_occupancy
    V1       V        0.48840    0.43330    0.68210    1.000
    V2       V        0.01610    0.25110    0.81870    1.000
    P1       P        0.00610    0.42990    0.75530    1.000
    P2       P        0.50300    0.25510    0.74350    1.000
    O1       O        0.04750    0.36040    0.87400    1.000
    O2       O        0.46380    0.32440    0.62370    1.000
    O3       O        0.79510    0.42640    0.64880    1.000
    O4       O        0.71220    0.25800    0.85360    1.000
    O5       O        0.17110    0.44260    0.63130    1.000
    O6       O        0.32620    0.24700    0.86350    1.000
    O7       O        0.97590    0.71750    0.87870    1.000
    O8       O        0.99660    0.64090    0.10170    1.000
    O9       O        0.53190    0.96440    0.61770    1.000
    O10      O        0.50360    0.04420    0.40450    1.000
    C1       C        0.00850    0.50880    0.90180    1.000
    C2       C        0.49810    0.17440    0.59950    1.000
    C3       C        0.51390    0.09530    0.68750    1.000
    C4       C        0.99110    0.58410    0.80950    1.000
    C5       C        0.51290    0.03170    0.56480    1.000
    C6       C        0.98140    0.65100    0.93590    1.000
    H1       H        0.89260    0.50370    0.97300    1.000
    H2       H        0.13770    0.50780    0.97860    1.000
    H3       H        0.36890    0.17620    0.52290    1.000
    H4       H        0.61340    0.17940    0.52760    1.000
    H5       H        0.64210    0.09320    0.76530    1.000
    H6       H        0.39710    0.08930    0.75730    1.000
    H7       H        0.86580    0.58420    0.72820    1.000
    H8       H        0.11110    0.59060    0.74340    1.000
    V3       V        0.51160    0.93330    0.31790    1.000
    V4       V        0.98390    0.75110    0.18130    1.000
    P3       P        0.99390    0.92990    0.24470    1.000
    P4       P        0.49700    0.75510    0.25650    1.000
    O11      O        0.95250    0.86040    0.12600    1.000
    O12      O        0.53620    0.82440    0.37630    1.000
    O13      O        0.20490    0.92640    0.35120    1.000
    O14      O        0.28780    0.75800    0.14640    1.000
    O15      O        0.82890    0.94260    0.36870    1.000
    O16      O        0.67380    0.74700    0.13650    1.000
    O17      O        0.02410    0.21750    0.12130    1.000
    O18      O        0.00340    0.14090    0.89830    1.000
    O19      O        0.46810    0.46440    0.38230    1.000
    O20      O        0.49640    0.54420    0.59550    1.000
    C7       C        0.99150    0.00880    0.09820    1.000
    C8       C        0.50190    0.67440    0.40050    1.000
    C9       C        0.48610    0.59530    0.31250    1.000
    C10      C        0.00890    0.08410    0.19050    1.000
    C11      C        0.48710    0.53170    0.43520    1.000
    C12      C        0.01860    0.15100    0.06410    1.000
    H9       H        0.10740    0.00370    0.02700    1.000
    H10      H        0.86230    0.00780    0.02140    1.000
    H11      H        0.63110    0.67620    0.47710    1.000
    H12      H        0.38660    0.67940    0.47240    1.000
    H13      H        0.35790    0.59320    0.23470    1.000
    H14      H        0.60290    0.58930    0.24270    1.000
    H15      H        0.13420    0.08420    0.27180    1.000
    H16      H        0.88890    0.09060    0.25660    1.000
