# CIF file generated by openbabel 3.1.0, see https://openbabel.org
data_I
_chemical_name_common 'image0'
_cell_length_a 38.074
_cell_length_b 38.074
_cell_length_c 24.316
_cell_angle_alpha 90
_cell_angle_beta 90
_cell_angle_gamma 120
_space_group_name_H-M_alt 'P 1'
_space_group_name_Hall 'P 1'
loop_
    _symmetry_equiv_pos_as_xyz
    x,y,z
loop_
    _atom_site_label
    _atom_site_type_symbol
    _atom_site_fract_x
    _atom_site_fract_y
    _atom_site_fract_z
    _atom_site_occupancy
    Gd1      Gd       0.56281    0.12459    0.66625    1.000
    Gd2      Gd       0.44886    0.90183    0.82513    1.000
    Cu1      Cu       0.52574    0.99857    0.78976    1.000
    Cu2      Cu       0.36845    0.89711    0.75036    1.000
    Cu3      Cu       0.47464    0.84620    0.73877    1.000
    Cu4      Cu       0.51230    0.97353    0.91923    1.000
    Cu5      Cu       0.46192    0.82253    0.86765    1.000
    Cu6      Cu       0.35375    0.87325    0.88086    1.000
    O1       O        0.50740    0.94210    0.76490    1.000
    O2       O        0.51760    0.90750    0.69720    1.000
    O3       O        0.42670    0.93750    0.76210    1.000
    O4       O        0.47480    0.99980    0.73890    1.000
    O5       O        0.43290    0.86150    0.74120    1.000
    O6       O        0.38480    0.86180    0.68920    1.000
    O7       O        0.49410    0.91670    0.90530    1.000
    O8       O        0.50220    0.86580    0.93600    1.000
    O9       O        0.41990    0.83940    0.87720    1.000
    O10      O        0.36050    0.82110    0.91720    1.000
    O11      O        0.41190    0.91213    0.89910    1.000
    O12      O        0.45060    0.95050    0.96690    1.000
    O13      O        0.55630    0.08530    0.74230    1.000
    O14      O        0.54350    0.05110    0.82300    1.000
    O15      O        0.26680    0.81400    0.92580    1.000
    O16      O        0.29840    0.84620    0.85120    1.000
    O17      O        0.51050    0.78650    0.92710    1.000
    O18      O        0.50230    0.80780    0.84460    1.000
    O19      O        0.48628    0.97176    0.84940    1.000
    O20      O        0.37460    0.86696    0.81100    1.000
    O21      O        0.48610    0.86720    0.81380    1.000
    N1       N        0.56380    0.01330    0.72570    1.000
    H1       H        0.55890    0.02830    0.70160    1.000
    H2       H        0.58950    0.02840    0.73760    1.000
    N2       N        0.37250    0.93680    0.69610    1.000
    H3       H        0.36990    0.92640    0.66200    1.000
    H4       H        0.35230    0.94220    0.70130    1.000
    N3       N        0.45040    0.81950    0.66890    1.000
    H5       H        0.46990    0.82540    0.64370    1.000
    H6       H        0.43620    0.79250    0.67340    1.000
    N4       N        0.53900    0.96720    0.98400    1.000
    H7       H        0.56600    0.98360    0.98130    1.000
    H8       H        0.53050    0.97410    0.01450    1.000
    N5       N        0.43150    0.78080    0.91910    1.000
    H9       H        0.42680    0.75680    0.90570    1.000
    H10      H        0.44540    0.78570    0.95070    1.000
    N6       N        0.34220    0.88910    0.95450    1.000
    H11      H        0.33160    0.90550    0.95020    1.000
    H12      H        0.32420    0.86690    0.97320    1.000
    C1       C        0.55880    0.97640    0.69790    1.000
    H13      H        0.58370    0.97560    0.70200    1.000
    H14      H        0.55470    0.97850    0.65900    1.000
    C2       C        0.52370    0.93670    0.71950    1.000
    C3       C        0.41080    0.97340    0.70080    1.000
    H15      H        0.40610    0.99480    0.71380    1.000
    H16      H        0.42280    0.98110    0.66440    1.000
    C4       C        0.43990    0.97110    0.73740    1.000
    C5       C        0.42530    0.83360    0.65200    1.000
    H17      H        0.40090    0.81090    0.63700    1.000
    H18      H        0.43870    0.85260    0.62220    1.000
    C6       C        0.41250    0.85460    0.69610    1.000
    C7       C        0.52960    0.92600    0.98790    1.000
    H19      H        0.51270    0.91370    0.02000    1.000
    H20      H        0.55460    0.92540    0.99310    1.000
    C8       C        0.50850    0.90180    0.93900    1.000
    C9       C        0.38930    0.77940    0.93030    1.000
    H21      H        0.36740    0.75510    0.91370    1.000
    H22      H        0.38440    0.77780    0.96960    1.000
    C10      C        0.38880    0.81580    0.90760    1.000
    C11      C        0.38090    0.91040    0.98480    1.000
    H23      H        0.38180    0.89200    0.01160    1.000
    H24      H        0.38190    0.93300    0.00470    1.000
    C12      C        0.41790    0.92630    0.94790    1.000
    C13      C        0.55340    0.08320    0.79550    1.000
    H25      H        0.55870    0.10650    0.81470    1.000
    C14      C        0.26880    0.82550    0.87770    1.000
    H26      H        0.24410    0.81680    0.86000    1.000
    C15      C        0.51920    0.79700    0.87660    1.000
    H27      H        0.54150    0.79610    0.86280    1.000
    Gd3      Gd       0.22948    0.45792    0.99958    1.000
    Gd4      Gd       0.11552    0.23517    0.15846    1.000
    Cu7      Cu       0.19241    0.33190    0.12309    1.000
    Cu8      Cu       0.03512    0.23044    0.08369    1.000
    Cu9      Cu       0.14131    0.17953    0.07210    1.000
    Cu10     Cu       0.17897    0.30686    0.25256    1.000
    Cu11     Cu       0.12859    0.15586    0.20098    1.000
    Cu12     Cu       0.02042    0.20658    0.21419    1.000
    O22      O        0.17407    0.27543    0.09823    1.000
    O23      O        0.18427    0.24083    0.03053    1.000
    O24      O        0.09337    0.27083    0.09543    1.000
    O25      O        0.14147    0.33313    0.07223    1.000
    O26      O        0.09957    0.19483    0.07453    1.000
    O27      O        0.05147    0.19513    0.02253    1.000
    O28      O        0.16077    0.25003    0.23863    1.000
    O29      O        0.16887    0.19913    0.26933    1.000
    O30      O        0.08657    0.17273    0.21053    1.000
    O31      O        0.02717    0.15443    0.25053    1.000
    O32      O        0.07857    0.24546    0.23243    1.000
    O33      O        0.11727    0.28383    0.30023    1.000
    O34      O        0.22297    0.41863    0.07563    1.000
    O35      O        0.21017    0.38443    0.15633    1.000
    O36      O        0.93347    0.14733    0.25913    1.000
    O37      O        0.96507    0.17953    0.18453    1.000
    O38      O        0.17717    0.11983    0.26043    1.000
    O39      O        0.16897    0.14113    0.17793    1.000
    O40      O        0.15295    0.30509    0.18273    1.000
    O41      O        0.04127    0.20029    0.14433    1.000
    O42      O        0.15277    0.20053    0.14713    1.000
    N7       N        0.23047    0.34663    0.05903    1.000
    H28      H        0.22557    0.36163    0.03493    1.000
    H29      H        0.25617    0.36173    0.07093    1.000
    N8       N        0.03917    0.27013    0.02943    1.000
    H30      H        0.03657    0.25973    0.99533    1.000
    H31      H        0.01897    0.27553    0.03463    1.000
    N9       N        0.11707    0.15283    0.00223    1.000
    H32      H        0.13657    0.15873    0.97703    1.000
    H33      H        0.10287    0.12583    0.00673    1.000
    N10      N        0.20567    0.30053    0.31733    1.000
    H34      H        0.23267    0.31693    0.31463    1.000
    H35      H        0.19717    0.30743    0.34783    1.000
    N11      N        0.09817    0.11413    0.25243    1.000
    H36      H        0.09347    0.09013    0.23903    1.000
    H37      H        0.11207    0.11903    0.28403    1.000
    N12      N        0.00887    0.22243    0.28783    1.000
    H38      H        0.99827    0.23883    0.28353    1.000
    H39      H        0.99087    0.20023    0.30653    1.000
    C16      C        0.22547    0.30973    0.03123    1.000
    H40      H        0.25037    0.30893    0.03533    1.000
    H41      H        0.22137    0.31183    0.99233    1.000
    C17      C        0.19037    0.27003    0.05283    1.000
    C18      C        0.07747    0.30673    0.03413    1.000
    H42      H        0.07277    0.32813    0.04713    1.000
    H43      H        0.08947    0.31443    0.99773    1.000
    C19      C        0.10657    0.30443    0.07073    1.000
    C20      C        0.09197    0.16693    0.98533    1.000
    H44      H        0.06757    0.14423    0.97033    1.000
    H45      H        0.10537    0.18593    0.95553    1.000
    C21      C        0.07917    0.18793    0.02943    1.000
    C22      C        0.19627    0.25933    0.32123    1.000
    H46      H        0.17937    0.24703    0.35333    1.000
    H47      H        0.22127    0.25873    0.32643    1.000
    C23      C        0.17517    0.23513    0.27233    1.000
    C24      C        0.05597    0.11273    0.26363    1.000
    H48      H        0.03407    0.08843    0.24703    1.000
    H49      H        0.05107    0.11113    0.30293    1.000
    C25      C        0.05547    0.14913    0.24093    1.000
    C26      C        0.04757    0.24373    0.31813    1.000
    H50      H        0.04847    0.22533    0.34493    1.000
    H51      H        0.04857    0.26633    0.33803    1.000
    C27      C        0.08457    0.25963    0.28123    1.000
    C28      C        0.22007    0.41653    0.12883    1.000
    H52      H        0.22537    0.43983    0.14803    1.000
    C29      C        0.93547    0.15883    0.21103    1.000
    H53      H        0.91077    0.15013    0.19333    1.000
    C30      C        0.18587    0.13033    0.20993    1.000
    H54      H        0.20817    0.12943    0.19613    1.000
    Gd5      Gd       0.89614    0.79126    0.33292    1.000
    Gd6      Gd       0.78219    0.56850    0.49180    1.000
    Cu13     Cu       0.85907    0.66524    0.45643    1.000
    Cu14     Cu       0.70178    0.56378    0.41703    1.000
    Cu15     Cu       0.80797    0.51287    0.40544    1.000
    Cu16     Cu       0.84563    0.64020    0.58590    1.000
    Cu17     Cu       0.79525    0.48920    0.53432    1.000
    Cu18     Cu       0.68708    0.53992    0.54753    1.000
    O43      O        0.84073    0.60877    0.43157    1.000
    O44      O        0.85093    0.57417    0.36387    1.000
    O45      O        0.76003    0.60417    0.42877    1.000
    O46      O        0.80813    0.66647    0.40557    1.000
    O47      O        0.76623    0.52817    0.40787    1.000
    O48      O        0.71813    0.52847    0.35587    1.000
    O49      O        0.82743    0.58337    0.57197    1.000
    O50      O        0.83553    0.53247    0.60267    1.000
    O51      O        0.75323    0.50607    0.54387    1.000
    O52      O        0.69383    0.48777    0.58387    1.000
    O53      O        0.74523    0.57880    0.56577    1.000
    O54      O        0.78393    0.61717    0.63357    1.000
    O55      O        0.88963    0.75197    0.40897    1.000
    O56      O        0.87683    0.71777    0.48967    1.000
    O57      O        0.60013    0.48067    0.59247    1.000
    O58      O        0.63173    0.51287    0.51787    1.000
    O59      O        0.84383    0.45317    0.59377    1.000
    O60      O        0.83563    0.47447    0.51127    1.000
    O61      O        0.81961    0.63843    0.51607    1.000
    O62      O        0.70793    0.53363    0.47767    1.000
    O63      O        0.81943    0.53387    0.48047    1.000
    N13      N        0.89713    0.67997    0.39237    1.000
    H55      H        0.89223    0.69497    0.36827    1.000
    H56      H        0.92283    0.69507    0.40427    1.000
    N14      N        0.70583    0.60347    0.36277    1.000
    H57      H        0.70323    0.59307    0.32867    1.000
    H58      H        0.68563    0.60887    0.36797    1.000
    N15      N        0.78373    0.48617    0.33557    1.000
    H59      H        0.80323    0.49207    0.31037    1.000
    H60      H        0.76953    0.45917    0.34007    1.000
    N16      N        0.87233    0.63387    0.65067    1.000
    H61      H        0.89933    0.65027    0.64797    1.000
    H62      H        0.86383    0.64077    0.68117    1.000
    N17      N        0.76483    0.44747    0.58577    1.000
    H63      H        0.76013    0.42347    0.57237    1.000
    H64      H        0.77873    0.45237    0.61737    1.000
    N18      N        0.67553    0.55577    0.62117    1.000
    H65      H        0.66493    0.57217    0.61687    1.000
    H66      H        0.65753    0.53357    0.63987    1.000
    C31      C        0.89213    0.64307    0.36457    1.000
    H67      H        0.91703    0.64227    0.36867    1.000
    H68      H        0.88803    0.64517    0.32567    1.000
    C32      C        0.85703    0.60337    0.38617    1.000
    C33      C        0.74413    0.64007    0.36747    1.000
    H69      H        0.73943    0.66147    0.38047    1.000
    H70      H        0.75613    0.64777    0.33107    1.000
    C34      C        0.77323    0.63777    0.40407    1.000
    C35      C        0.75863    0.50027    0.31867    1.000
    H71      H        0.73423    0.47757    0.30367    1.000
    H72      H        0.77203    0.51927    0.28887    1.000
    C36      C        0.74583    0.52127    0.36277    1.000
    C37      C        0.86293    0.59267    0.65457    1.000
    H73      H        0.84603    0.58037    0.68667    1.000
    H74      H        0.88793    0.59207    0.65977    1.000
    C38      C        0.84183    0.56847    0.60567    1.000
    C39      C        0.72263    0.44607    0.59697    1.000
    H75      H        0.70073    0.42177    0.58037    1.000
    H76      H        0.71773    0.44447    0.63627    1.000
    C40      C        0.72213    0.48247    0.57427    1.000
    C41      C        0.71423    0.57707    0.65147    1.000
    H77      H        0.71513    0.55867    0.67827    1.000
    H78      H        0.71523    0.59967    0.67137    1.000
    C42      C        0.75123    0.59297    0.61457    1.000
    C43      C        0.88673    0.74987    0.46217    1.000
    H79      H        0.89203    0.77317    0.48137    1.000
    C44      C        0.60213    0.49217    0.54437    1.000
    H80      H        0.57743    0.48347    0.52667    1.000
    C45      C        0.85253    0.46367    0.54327    1.000
    H81      H        0.87483    0.46277    0.52947    1.000
    Gd7      Gd       0.87541    0.43822    0.66625    1.000
    Gd8      Gd       0.09817    0.54702    0.82513    1.000
    Cu19     Cu       0.00143    0.52717    0.78976    1.000
    Cu20     Cu       0.10289    0.47134    0.75036    1.000
    Cu21     Cu       0.15380    0.62844    0.73877    1.000
    Cu22     Cu       0.02647    0.53877    0.91923    1.000
    Cu23     Cu       0.17747    0.63939    0.86765    1.000
    Cu24     Cu       0.12675    0.48050    0.88086    1.000
    O64      O        0.05790    0.56530    0.76490    1.000
    O65      O        0.09250    0.61010    0.69720    1.000
    O66      O        0.06250    0.48920    0.76210    1.000
    O67      O        0.00020    0.47500    0.73890    1.000
    O68      O        0.13850    0.57140    0.74120    1.000
    O69      O        0.13820    0.52300    0.68920    1.000
    O70      O        0.08330    0.57740    0.90530    1.000
    O71      O        0.13420    0.63640    0.93600    1.000
    O72      O        0.16060    0.58050    0.87720    1.000
    O73      O        0.17890    0.53940    0.91720    1.000
    O74      O        0.08787    0.49977    0.89910    1.000
    O75      O        0.04950    0.50010    0.96690    1.000
    O76      O        0.91470    0.47100    0.74230    1.000
    O77      O        0.94890    0.49240    0.82300    1.000
    O78      O        0.18600    0.45280    0.92580    1.000
    O79      O        0.15380    0.45220    0.85120    1.000
    O80      O        0.21350    0.72400    0.92710    1.000
    O81      O        0.19220    0.69450    0.84460    1.000
    O82      O        0.02824    0.51452    0.84940    1.000
    O83      O        0.13304    0.50764    0.81100    1.000
    O84      O        0.13280    0.61890    0.81380    1.000
    N19      N        0.98670    0.55050    0.72570    1.000
    H82      H        0.97170    0.53060    0.70160    1.000
    H83      H        0.97160    0.56110    0.73760    1.000
    N20      N        0.06320    0.43570    0.69610    1.000
    H84      H        0.07360    0.44350    0.66200    1.000
    H85      H        0.05780    0.41010    0.70130    1.000
    N21      N        0.18050    0.63090    0.66890    1.000
    H86      H        0.17460    0.64450    0.64370    1.000
    H87      H        0.20750    0.64370    0.67340    1.000
    N22      N        0.03280    0.57180    0.98400    1.000
    H88      H        0.01640    0.58240    0.98130    1.000
    H89      H        0.02590    0.55640    0.01450    1.000
    N23      N        0.21920    0.65070    0.91910    1.000
    H90      H        0.24320    0.67000    0.90570    1.000
    H91      H        0.21430    0.65970    0.95070    1.000
    N24      N        0.11090    0.45310    0.95450    1.000
    H92      H        0.09450    0.42610    0.95020    1.000
    H93      H        0.13310    0.45730    0.97320    1.000
    C46      C        0.02360    0.58240    0.69790    1.000
    H94      H        0.02440    0.60810    0.70200    1.000
    H95      H        0.02150    0.57620    0.65900    1.000
    C47      C        0.06330    0.58700    0.71950    1.000
    C48      C        0.02660    0.43740    0.70080    1.000
    H96      H        0.00520    0.41130    0.71380    1.000
    H97      H        0.01890    0.44170    0.66440    1.000
    C49      C        0.02890    0.46880    0.73740    1.000
    C50      C        0.16640    0.59170    0.65200    1.000
    H98      H        0.18910    0.59000    0.63700    1.000
    H99      H        0.14740    0.58610    0.62220    1.000
    C51      C        0.14540    0.55790    0.69610    1.000
    C52      C        0.07400    0.60360    0.98790    1.000
    H100     H        0.08630    0.59900    0.02000    1.000
    H101     H        0.07460    0.62920    0.99310    1.000
    C53      C        0.09820    0.60670    0.93900    1.000
    C54      C        0.22060    0.60990    0.93030    1.000
    H102     H        0.24490    0.61230    0.91370    1.000
    H103     H        0.22220    0.60660    0.96960    1.000
    C55      C        0.18420    0.57300    0.90760    1.000
    C56      C        0.08960    0.47050    0.98480    1.000
    H104     H        0.10800    0.48980    0.01160    1.000
    H105     H        0.06700    0.44890    0.00470    1.000
    C57      C        0.07370    0.49160    0.94790    1.000
    C58      C        0.91680    0.47020    0.79550    1.000
    H106     H        0.89350    0.45220    0.81470    1.000
    C59      C        0.17450    0.44330    0.87770    1.000
    H107     H        0.18320    0.42730    0.86000    1.000
    C60      C        0.20300    0.72220    0.87660    1.000
    H108     H        0.20390    0.74540    0.86280    1.000
    Gd9      Gd       0.54208    0.77155    0.99958    1.000
    Gd10     Gd       0.76483    0.88036    0.15846    1.000
    Cu25     Cu       0.66810    0.86050    0.12309    1.000
    Cu26     Cu       0.76956    0.80467    0.08369    1.000
    Cu27     Cu       0.82047    0.96177    0.07210    1.000
    Cu28     Cu       0.69314    0.87210    0.25256    1.000
    Cu29     Cu       0.84414    0.97272    0.20098    1.000
    Cu30     Cu       0.79342    0.81383    0.21419    1.000
    O85      O        0.72457    0.89863    0.09823    1.000
    O86      O        0.75917    0.94343    0.03053    1.000
    O87      O        0.72917    0.82253    0.09543    1.000
    O88      O        0.66687    0.80833    0.07223    1.000
    O89      O        0.80517    0.90473    0.07453    1.000
    O90      O        0.80487    0.85633    0.02253    1.000
    O91      O        0.74997    0.91073    0.23863    1.000
    O92      O        0.80087    0.96973    0.26933    1.000
    O93      O        0.82727    0.91383    0.21053    1.000
    O94      O        0.84557    0.87273    0.25053    1.000
    O95      O        0.75454    0.83310    0.23243    1.000
    O96      O        0.71617    0.83343    0.30023    1.000
    O97      O        0.58137    0.80433    0.07563    1.000
    O98      O        0.61557    0.82573    0.15633    1.000
    O99      O        0.85267    0.78613    0.25913    1.000
    O100     O        0.82047    0.78553    0.18453    1.000
    O101     O        0.88017    0.05733    0.26043    1.000
    O102     O        0.85887    0.02783    0.17793    1.000
    O103     O        0.69491    0.84785    0.18273    1.000
    O104     O        0.79971    0.84097    0.14433    1.000
    O105     O        0.79947    0.95223    0.14713    1.000
    N25      N        0.65337    0.88383    0.05903    1.000
    H109     H        0.63837    0.86393    0.03493    1.000
    H110     H        0.63827    0.89443    0.07093    1.000
    N26      N        0.72987    0.76903    0.02943    1.000
    H111     H        0.74027    0.77683    0.99533    1.000
    H112     H        0.72447    0.74343    0.03463    1.000
    N27      N        0.84717    0.96423    0.00223    1.000
    H113     H        0.84127    0.97783    0.97703    1.000
    H114     H        0.87417    0.97703    0.00673    1.000
    N28      N        0.69947    0.90513    0.31733    1.000
    H115     H        0.68307    0.91573    0.31463    1.000
    H116     H        0.69257    0.88973    0.34783    1.000
    N29      N        0.88587    0.98403    0.25243    1.000
    H117     H        0.90987    0.00333    0.23903    1.000
    H118     H        0.88097    0.99303    0.28403    1.000
    N30      N        0.77757    0.78643    0.28783    1.000
    H119     H        0.76117    0.75943    0.28353    1.000
    H120     H        0.79977    0.79063    0.30653    1.000
    C61      C        0.69027    0.91573    0.03123    1.000
    H121     H        0.69107    0.94143    0.03533    1.000
    H122     H        0.68817    0.90953    0.99233    1.000
    C62      C        0.72997    0.92033    0.05283    1.000
    C63      C        0.69327    0.77073    0.03413    1.000
    H123     H        0.67187    0.74463    0.04713    1.000
    H124     H        0.68557    0.77503    0.99773    1.000
    C64      C        0.69557    0.80213    0.07073    1.000
    C65      C        0.83307    0.92503    0.98533    1.000
    H125     H        0.85577    0.92333    0.97033    1.000
    H126     H        0.81407    0.91943    0.95553    1.000
    C66      C        0.81207    0.89123    0.02943    1.000
    C67      C        0.74067    0.93693    0.32123    1.000
    H127     H        0.75297    0.93233    0.35333    1.000
    H128     H        0.74127    0.96253    0.32643    1.000
    C68      C        0.76487    0.94003    0.27233    1.000
    C69      C        0.88727    0.94323    0.26363    1.000
    H129     H        0.91157    0.94563    0.24703    1.000
    H130     H        0.88887    0.93993    0.30293    1.000
    C70      C        0.85087    0.90633    0.24093    1.000
    C71      C        0.75627    0.80383    0.31813    1.000
    H131     H        0.77467    0.82313    0.34493    1.000
    H132     H        0.73367    0.78223    0.33803    1.000
    C72      C        0.74037    0.82493    0.28123    1.000
    C73      C        0.58347    0.80353    0.12883    1.000
    H133     H        0.56017    0.78553    0.14803    1.000
    C74      C        0.84117    0.77663    0.21103    1.000
    H134     H        0.84987    0.76063    0.19333    1.000
    C75      C        0.86967    0.05553    0.20993    1.000
    H135     H        0.87057    0.07873    0.19613    1.000
    Gd11     Gd       0.20874    0.10489    0.33292    1.000
    Gd12     Gd       0.43150    0.21369    0.49180    1.000
    Cu31     Cu       0.33476    0.19384    0.45643    1.000
    Cu32     Cu       0.43622    0.13801    0.41703    1.000
    Cu33     Cu       0.48713    0.29511    0.40544    1.000
    Cu34     Cu       0.35980    0.20544    0.58590    1.000
    Cu35     Cu       0.51080    0.30606    0.53432    1.000
    Cu36     Cu       0.46008    0.14717    0.54753    1.000
    O106     O        0.39123    0.23197    0.43157    1.000
    O107     O        0.42583    0.27677    0.36387    1.000
    O108     O        0.39583    0.15587    0.42877    1.000
    O109     O        0.33353    0.14167    0.40557    1.000
    O110     O        0.47183    0.23807    0.40787    1.000
    O111     O        0.47153    0.18967    0.35587    1.000
    O112     O        0.41663    0.24407    0.57197    1.000
    O113     O        0.46753    0.30307    0.60267    1.000
    O114     O        0.49393    0.24717    0.54387    1.000
    O115     O        0.51223    0.20607    0.58387    1.000
    O116     O        0.42120    0.16644    0.56577    1.000
    O117     O        0.38283    0.16677    0.63357    1.000
    O118     O        0.24803    0.13767    0.40897    1.000
    O119     O        0.28223    0.15907    0.48967    1.000
    O120     O        0.51933    0.11947    0.59247    1.000
    O121     O        0.48713    0.11887    0.51787    1.000
    O122     O        0.54683    0.39067    0.59377    1.000
    O123     O        0.52553    0.36117    0.51127    1.000
    O124     O        0.36157    0.18119    0.51607    1.000
    O125     O        0.46637    0.17431    0.47767    1.000
    O126     O        0.46613    0.28557    0.48047    1.000
    N31      N        0.32003    0.21717    0.39237    1.000
    H136     H        0.30503    0.19727    0.36827    1.000
    H137     H        0.30493    0.22777    0.40427    1.000
    N32      N        0.39653    0.10237    0.36277    1.000
    H138     H        0.40693    0.11017    0.32867    1.000
    H139     H        0.39113    0.07677    0.36797    1.000
    N33      N        0.51383    0.29757    0.33557    1.000
    H140     H        0.50793    0.31117    0.31037    1.000
    H141     H        0.54083    0.31037    0.34007    1.000
    N34      N        0.36613    0.23847    0.65067    1.000
    H142     H        0.34973    0.24907    0.64797    1.000
    H143     H        0.35923    0.22307    0.68117    1.000
    N35      N        0.55253    0.31737    0.58577    1.000
    H144     H        0.57653    0.33667    0.57237    1.000
    H145     H        0.54763    0.32637    0.61737    1.000
    N36      N        0.44423    0.11977    0.62117    1.000
    H146     H        0.42783    0.09277    0.61687    1.000
    H147     H        0.46643    0.12397    0.63987    1.000
    C76      C        0.35693    0.24907    0.36457    1.000
    H148     H        0.35773    0.27477    0.36867    1.000
    H149     H        0.35483    0.24287    0.32567    1.000
    C77      C        0.39663    0.25367    0.38617    1.000
    C78      C        0.35993    0.10407    0.36747    1.000
    H150     H        0.33853    0.07797    0.38047    1.000
    H151     H        0.35223    0.10837    0.33107    1.000
    C79      C        0.36223    0.13547    0.40407    1.000
    C80      C        0.49973    0.25837    0.31867    1.000
    H152     H        0.52243    0.25667    0.30367    1.000
    H153     H        0.48073    0.25277    0.28887    1.000
    C81      C        0.47873    0.22457    0.36277    1.000
    C82      C        0.40733    0.27027    0.65457    1.000
    H154     H        0.41963    0.26567    0.68667    1.000
    H155     H        0.40793    0.29587    0.65977    1.000
    C83      C        0.43153    0.27337    0.60567    1.000
    C84      C        0.55393    0.27657    0.59697    1.000
    H156     H        0.57823    0.27897    0.58037    1.000
    H157     H        0.55553    0.27327    0.63627    1.000
    C85      C        0.51753    0.23967    0.57427    1.000
    C86      C        0.42293    0.13717    0.65147    1.000
    H158     H        0.44133    0.15647    0.67827    1.000
    H159     H        0.40033    0.11557    0.67137    1.000
    C87      C        0.40703    0.15827    0.61457    1.000
    C88      C        0.25013    0.13687    0.46217    1.000
    H160     H        0.22683    0.11887    0.48137    1.000
    C89      C        0.50783    0.10997    0.54437    1.000
    H161     H        0.51653    0.09397    0.52667    1.000
    C90      C        0.53633    0.38887    0.54327    1.000
    H162     H        0.53723    0.41207    0.52947    1.000
    Gd13     Gd       0.56178    0.43719    0.66625    1.000
    Gd14     Gd       0.45298    0.55114    0.82513    1.000
    Cu37     Cu       0.47283    0.47426    0.78976    1.000
    Cu38     Cu       0.52866    0.63155    0.75036    1.000
    Cu39     Cu       0.37156    0.52536    0.73877    1.000
    Cu40     Cu       0.46123    0.48770    0.91923    1.000
    Cu41     Cu       0.36061    0.53808    0.86765    1.000
    Cu42     Cu       0.51950    0.64625    0.88086    1.000
    O127     O        0.43470    0.49260    0.76490    1.000
    O128     O        0.38990    0.48240    0.69720    1.000
    O129     O        0.51080    0.57330    0.76210    1.000
    O130     O        0.52500    0.52520    0.73890    1.000
    O131     O        0.42860    0.56710    0.74120    1.000
    O132     O        0.47700    0.61520    0.68920    1.000
    O133     O        0.42260    0.50590    0.90530    1.000
    O134     O        0.36360    0.49780    0.93600    1.000
    O135     O        0.41950    0.58010    0.87720    1.000
    O136     O        0.46060    0.63950    0.91720    1.000
    O137     O        0.50023    0.58810    0.89910    1.000
    O138     O        0.49990    0.54940    0.96690    1.000
    O139     O        0.52900    0.44370    0.74230    1.000
    O140     O        0.50760    0.45650    0.82300    1.000
    O141     O        0.54720    0.73320    0.92580    1.000
    O142     O        0.54780    0.70160    0.85120    1.000
    O143     O        0.27600    0.48950    0.92710    1.000
    O144     O        0.30550    0.49770    0.84460    1.000
    O145     O        0.48548    0.51372    0.84940    1.000
    O146     O        0.49236    0.62540    0.81100    1.000
    O147     O        0.38110    0.51390    0.81380    1.000
    N37      N        0.44950    0.43620    0.72570    1.000
    H163     H        0.46940    0.44110    0.70160    1.000
    H164     H        0.43890    0.41050    0.73760    1.000
    N38      N        0.56430    0.62750    0.69610    1.000
    H165     H        0.55650    0.63010    0.66200    1.000
    H166     H        0.58990    0.64770    0.70130    1.000
    N39      N        0.36910    0.54960    0.66890    1.000
    H167     H        0.35550    0.53010    0.64370    1.000
    H168     H        0.35630    0.56380    0.67340    1.000
    N40      N        0.42820    0.46100    0.98400    1.000
    H169     H        0.41760    0.43400    0.98130    1.000
    H170     H        0.44360    0.46950    0.01450    1.000
    N41      N        0.34930    0.56850    0.91910    1.000
    H171     H        0.33000    0.57320    0.90570    1.000
    H172     H        0.34030    0.55460    0.95070    1.000
    N42      N        0.54690    0.65780    0.95450    1.000
    H173     H        0.57390    0.66840    0.95020    1.000
    H174     H        0.54270    0.67580    0.97320    1.000
    C91      C        0.41760    0.44120    0.69790    1.000
    H175     H        0.39190    0.41630    0.70200    1.000
    H176     H        0.42380    0.44530    0.65900    1.000
    C92      C        0.41300    0.47630    0.71950    1.000
    C93      C        0.56260    0.58920    0.70080    1.000
    H177     H        0.58870    0.59390    0.71380    1.000
    H178     H        0.55830    0.57720    0.66440    1.000
    C94      C        0.53120    0.56010    0.73740    1.000
    C95      C        0.40830    0.57470    0.65200    1.000
    H179     H        0.41000    0.59910    0.63700    1.000
    H180     H        0.41390    0.56130    0.62220    1.000
    C96      C        0.44210    0.58750    0.69610    1.000
    C97      C        0.39640    0.47040    0.98790    1.000
    H181     H        0.40100    0.48730    0.02000    1.000
    H182     H        0.37080    0.44540    0.99310    1.000
    C98      C        0.39330    0.49150    0.93900    1.000
    C99      C        0.39010    0.61070    0.93030    1.000
    H183     H        0.38770    0.63260    0.91370    1.000
    H184     H        0.39340    0.61560    0.96960    1.000
    C100     C        0.42700    0.61120    0.90760    1.000
    C101     C        0.52950    0.61910    0.98480    1.000
    H185     H        0.51020    0.61820    0.01160    1.000
    H186     H        0.55110    0.61810    0.00470    1.000
    C102     C        0.50840    0.58210    0.94790    1.000
    C103     C        0.52980    0.44660    0.79550    1.000
    H187     H        0.54780    0.44130    0.81470    1.000
    C104     C        0.55670    0.73120    0.87770    1.000
    H188     H        0.57270    0.75590    0.86000    1.000
    C105     C        0.27780    0.48080    0.87660    1.000
    H189     H        0.25460    0.45850    0.86280    1.000
    Gd15     Gd       0.22845    0.77052    0.99958    1.000
    Gd16     Gd       0.11964    0.88448    0.15846    1.000
    Cu43     Cu       0.13950    0.80759    0.12309    1.000
    Cu44     Cu       0.19533    0.96488    0.08369    1.000
    Cu45     Cu       0.03823    0.85869    0.07210    1.000
    Cu46     Cu       0.12790    0.82103    0.25256    1.000
    Cu47     Cu       0.02728    0.87141    0.20098    1.000
    Cu48     Cu       0.18617    0.97958    0.21419    1.000
    O148     O        0.10137    0.82593    0.09823    1.000
    O149     O        0.05657    0.81573    0.03053    1.000
    O150     O        0.17747    0.90663    0.09543    1.000
    O151     O        0.19167    0.85853    0.07223    1.000
    O152     O        0.09527    0.90043    0.07453    1.000
    O153     O        0.14367    0.94853    0.02253    1.000
    O154     O        0.08927    0.83923    0.23863    1.000
    O155     O        0.03027    0.83113    0.26933    1.000
    O156     O        0.08617    0.91343    0.21053    1.000
    O157     O        0.12727    0.97283    0.25053    1.000
    O158     O        0.16690    0.92143    0.23243    1.000
    O159     O        0.16657    0.88273    0.30023    1.000
    O160     O        0.19567    0.77703    0.07563    1.000
    O161     O        0.17427    0.78983    0.15633    1.000
    O162     O        0.21387    0.06653    0.25913    1.000
    O163     O        0.21447    0.03493    0.18453    1.000
    O164     O        0.94267    0.82283    0.26043    1.000
    O165     O        0.97217    0.83103    0.17793    1.000
    O166     O        0.15215    0.84705    0.18273    1.000
    O167     O        0.15903    0.95873    0.14433    1.000
    O168     O        0.04777    0.84723    0.14713    1.000
    N43      N        0.11617    0.76953    0.05903    1.000
    H190     H        0.13607    0.77443    0.03493    1.000
    H191     H        0.10557    0.74383    0.07093    1.000
    N44      N        0.23097    0.96083    0.02943    1.000
    H192     H        0.22317    0.96343    0.99533    1.000
    H193     H        0.25657    0.98103    0.03463    1.000
    N45      N        0.03577    0.88293    0.00223    1.000
    H194     H        0.02217    0.86343    0.97703    1.000
    H195     H        0.02297    0.89713    0.00673    1.000
    N46      N        0.09487    0.79433    0.31733    1.000
    H196     H        0.08427    0.76733    0.31463    1.000
    H197     H        0.11027    0.80283    0.34783    1.000
    N47      N        0.01597    0.90183    0.25243    1.000
    H198     H        0.99667    0.90653    0.23903    1.000
    H199     H        0.00697    0.88793    0.28403    1.000
    N48      N        0.21357    0.99113    0.28783    1.000
    H200     H        0.24057    0.00173    0.28353    1.000
    H201     H        0.20937    0.00913    0.30653    1.000
    C106     C        0.08427    0.77453    0.03123    1.000
    H202     H        0.05857    0.74963    0.03533    1.000
    H203     H        0.09047    0.77863    0.99233    1.000
    C107     C        0.07967    0.80963    0.05283    1.000
    C108     C        0.22927    0.92253    0.03413    1.000
    H204     H        0.25537    0.92723    0.04713    1.000
    H205     H        0.22497    0.91053    0.99773    1.000
    C109     C        0.19787    0.89343    0.07073    1.000
    C110     C        0.07497    0.90803    0.98533    1.000
    H206     H        0.07667    0.93243    0.97033    1.000
    H207     H        0.08057    0.89463    0.95553    1.000
    C111     C        0.10877    0.92083    0.02943    1.000
    C112     C        0.06307    0.80373    0.32123    1.000
    H208     H        0.06767    0.82063    0.35333    1.000
    H209     H        0.03747    0.77873    0.32643    1.000
    C113     C        0.05997    0.82483    0.27233    1.000
    C114     C        0.05677    0.94403    0.26363    1.000
    H210     H        0.05437    0.96593    0.24703    1.000
    H211     H        0.06007    0.94893    0.30293    1.000
    C115     C        0.09367    0.94453    0.24093    1.000
    C116     C        0.19617    0.95243    0.31813    1.000
    H212     H        0.17687    0.95153    0.34493    1.000
    H213     H        0.21777    0.95143    0.33803    1.000
    C117     C        0.17507    0.91543    0.28123    1.000
    C118     C        0.19647    0.77993    0.12883    1.000
    H214     H        0.21447    0.77463    0.14803    1.000
    C119     C        0.22337    0.06453    0.21103    1.000
    H215     H        0.23937    0.08923    0.19333    1.000
    C120     C        0.94447    0.81413    0.20993    1.000
    H216     H        0.92127    0.79183    0.19613    1.000
    Gd17     Gd       0.89511    0.10386    0.33292    1.000
    Gd18     Gd       0.78631    0.21781    0.49180    1.000
    Cu49     Cu       0.80616    0.14093    0.45643    1.000
    Cu50     Cu       0.86199    0.29822    0.41703    1.000
    Cu51     Cu       0.70489    0.19203    0.40544    1.000
    Cu52     Cu       0.79456    0.15437    0.58590    1.000
    Cu53     Cu       0.69394    0.20475    0.53432    1.000
    Cu54     Cu       0.85283    0.31292    0.54753    1.000
    O169     O        0.76803    0.15927    0.43157    1.000
    O170     O        0.72323    0.14907    0.36387    1.000
    O171     O        0.84413    0.23997    0.42877    1.000
    O172     O        0.85833    0.19187    0.40557    1.000
    O173     O        0.76193    0.23377    0.40787    1.000
    O174     O        0.81033    0.28187    0.35587    1.000
    O175     O        0.75593    0.17257    0.57197    1.000
    O176     O        0.69693    0.16447    0.60267    1.000
    O177     O        0.75283    0.24677    0.54387    1.000
    O178     O        0.79393    0.30617    0.58387    1.000
    O179     O        0.83356    0.25477    0.56577    1.000
    O180     O        0.83323    0.21607    0.63357    1.000
    O181     O        0.86233    0.11037    0.40897    1.000
    O182     O        0.84093    0.12317    0.48967    1.000
    O183     O        0.88053    0.39987    0.59247    1.000
    O184     O        0.88113    0.36827    0.51787    1.000
    O185     O        0.60933    0.15617    0.59377    1.000
    O186     O        0.63883    0.16437    0.51127    1.000
    O187     O        0.81881    0.18039    0.51607    1.000
    O188     O        0.82569    0.29207    0.47767    1.000
    O189     O        0.71443    0.18057    0.48047    1.000
    N49      N        0.78283    0.10287    0.39237    1.000
    H217     H        0.80273    0.10777    0.36827    1.000
    H218     H        0.77223    0.07717    0.40427    1.000
    N50      N        0.89763    0.29417    0.36277    1.000
    H219     H        0.88983    0.29677    0.32867    1.000
    H220     H        0.92323    0.31437    0.36797    1.000
    N51      N        0.70243    0.21627    0.33557    1.000
    H221     H        0.68883    0.19677    0.31037    1.000
    H222     H        0.68963    0.23047    0.34007    1.000
    N52      N        0.76153    0.12767    0.65067    1.000
    H223     H        0.75093    0.10067    0.64797    1.000
    H224     H        0.77693    0.13617    0.68117    1.000
    N53      N        0.68263    0.23517    0.58577    1.000
    H225     H        0.66333    0.23987    0.57237    1.000
    H226     H        0.67363    0.22127    0.61737    1.000
    N54      N        0.88023    0.32447    0.62117    1.000
    H227     H        0.90723    0.33507    0.61687    1.000
    H228     H        0.87603    0.34247    0.63987    1.000
    C121     C        0.75093    0.10787    0.36457    1.000
    H229     H        0.72523    0.08297    0.36867    1.000
    H230     H        0.75713    0.11197    0.32567    1.000
    C122     C        0.74633    0.14297    0.38617    1.000
    C123     C        0.89593    0.25587    0.36747    1.000
    H231     H        0.92203    0.26057    0.38047    1.000
    H232     H        0.89163    0.24387    0.33107    1.000
    C124     C        0.86453    0.22677    0.40407    1.000
    C125     C        0.74163    0.24137    0.31867    1.000
    H233     H        0.74333    0.26577    0.30367    1.000
    H234     H        0.74723    0.22797    0.28887    1.000
    C126     C        0.77543    0.25417    0.36277    1.000
    C127     C        0.72973    0.13707    0.65457    1.000
    H235     H        0.73433    0.15397    0.68667    1.000
    H236     H        0.70413    0.11207    0.65977    1.000
    C128     C        0.72663    0.15817    0.60567    1.000
    C129     C        0.72343    0.27737    0.59697    1.000
    H237     H        0.72103    0.29927    0.58037    1.000
    H238     H        0.72673    0.28227    0.63627    1.000
    C130     C        0.76033    0.27787    0.57427    1.000
    C131     C        0.86283    0.28577    0.65147    1.000
    H239     H        0.84353    0.28487    0.67827    1.000
    H240     H        0.88443    0.28477    0.67137    1.000
    C132     C        0.84173    0.24877    0.61457    1.000
    C133     C        0.86313    0.11327    0.46217    1.000
    H241     H        0.88113    0.10797    0.48137    1.000
    C134     C        0.89003    0.39787    0.54437    1.000
    H242     H        0.90603    0.42257    0.52667    1.000
    C135     C        0.61113    0.14747    0.54327    1.000
    H243     H        0.58793    0.12517    0.52947    1.000
    Gd19     Gd       0.43719    0.87541    0.33375    1.000
    Gd20     Gd       0.55114    0.09817    0.17487    1.000
    Cu55     Cu       0.47426    0.00143    0.21024    1.000
    Cu56     Cu       0.63155    0.10289    0.24964    1.000
    Cu57     Cu       0.52536    0.15380    0.26123    1.000
    Cu58     Cu       0.48770    0.02647    0.08077    1.000
    Cu59     Cu       0.53808    0.17747    0.13235    1.000
    Cu60     Cu       0.64625    0.12675    0.11914    1.000
    O190     O        0.49260    0.05790    0.23510    1.000
    O191     O        0.48240    0.09250    0.30280    1.000
    O192     O        0.57330    0.06250    0.23790    1.000
    O193     O        0.52520    0.00020    0.26110    1.000
    O194     O        0.56710    0.13850    0.25880    1.000
    O195     O        0.61520    0.13820    0.31080    1.000
    O196     O        0.50590    0.08330    0.09470    1.000
    O197     O        0.49780    0.13420    0.06400    1.000
    O198     O        0.58010    0.16060    0.12280    1.000
    O199     O        0.63950    0.17890    0.08280    1.000
    O200     O        0.58810    0.08787    0.10090    1.000
    O201     O        0.54940    0.04950    0.03310    1.000
    O202     O        0.44370    0.91470    0.25770    1.000
    O203     O        0.45650    0.94890    0.17700    1.000
    O204     O        0.73320    0.18600    0.07420    1.000
    O205     O        0.70160    0.15380    0.14880    1.000
    O206     O        0.48950    0.21350    0.07290    1.000
    O207     O        0.49770    0.19220    0.15540    1.000
    O208     O        0.51372    0.02824    0.15060    1.000
    O209     O        0.62540    0.13304    0.18900    1.000
    O210     O        0.51390    0.13280    0.18620    1.000
    N55      N        0.43620    0.98670    0.27430    1.000
    H244     H        0.44110    0.97170    0.29840    1.000
    H245     H        0.41050    0.97160    0.26240    1.000
    N56      N        0.62750    0.06320    0.30390    1.000
    H246     H        0.63010    0.07360    0.33800    1.000
    H247     H        0.64770    0.05780    0.29870    1.000
    N57      N        0.54960    0.18050    0.33110    1.000
    H248     H        0.53010    0.17460    0.35630    1.000
    H249     H        0.56380    0.20750    0.32660    1.000
    N58      N        0.46100    0.03280    0.01600    1.000
    H250     H        0.43400    0.01640    0.01870    1.000
    H251     H        0.46950    0.02590    0.98550    1.000
    N59      N        0.56850    0.21920    0.08090    1.000
    H252     H        0.57320    0.24320    0.09430    1.000
    H253     H        0.55460    0.21430    0.04930    1.000
    N60      N        0.65780    0.11090    0.04550    1.000
    H254     H        0.66840    0.09450    0.04980    1.000
    H255     H        0.67580    0.13310    0.02680    1.000
    C136     C        0.44120    0.02360    0.30210    1.000
    H256     H        0.41630    0.02440    0.29800    1.000
    H257     H        0.44530    0.02150    0.34100    1.000
    C137     C        0.47630    0.06330    0.28050    1.000
    C138     C        0.58920    0.02660    0.29920    1.000
    H258     H        0.59390    0.00520    0.28620    1.000
    H259     H        0.57720    0.01890    0.33560    1.000
    C139     C        0.56010    0.02890    0.26260    1.000
    C140     C        0.57470    0.16640    0.34800    1.000
    H260     H        0.59910    0.18910    0.36300    1.000
    H261     H        0.56130    0.14740    0.37780    1.000
    C141     C        0.58750    0.14540    0.30390    1.000
    C142     C        0.47040    0.07400    0.01210    1.000
    H262     H        0.48730    0.08630    0.98000    1.000
    H263     H        0.44540    0.07460    0.00690    1.000
    C143     C        0.49150    0.09820    0.06100    1.000
    C144     C        0.61070    0.22060    0.06970    1.000
    H264     H        0.63260    0.24490    0.08630    1.000
    H265     H        0.61560    0.22220    0.03040    1.000
    C145     C        0.61120    0.18420    0.09240    1.000
    C146     C        0.61910    0.08960    0.01520    1.000
    H266     H        0.61820    0.10800    0.98840    1.000
    H267     H        0.61810    0.06700    0.99530    1.000
    C147     C        0.58210    0.07370    0.05210    1.000
    C148     C        0.44660    0.91680    0.20450    1.000
    H268     H        0.44130    0.89350    0.18530    1.000
    C149     C        0.73120    0.17450    0.12230    1.000
    H269     H        0.75590    0.18320    0.14000    1.000
    C150     C        0.48080    0.20300    0.12340    1.000
    H270     H        0.45850    0.20390    0.13720    1.000
    Gd21     Gd       0.10386    0.20874    0.66708    1.000
    Gd22     Gd       0.21781    0.43150    0.50820    1.000
    Cu61     Cu       0.14093    0.33476    0.54357    1.000
    Cu62     Cu       0.29822    0.43622    0.58297    1.000
    Cu63     Cu       0.19203    0.48713    0.59456    1.000
    Cu64     Cu       0.15437    0.35980    0.41410    1.000
    Cu65     Cu       0.20475    0.51080    0.46568    1.000
    Cu66     Cu       0.31292    0.46008    0.45247    1.000
    O211     O        0.15927    0.39123    0.56843    1.000
    O212     O        0.14907    0.42583    0.63613    1.000
    O213     O        0.23997    0.39583    0.57123    1.000
    O214     O        0.19187    0.33353    0.59443    1.000
    O215     O        0.23377    0.47183    0.59213    1.000
    O216     O        0.28187    0.47153    0.64413    1.000
    O217     O        0.17257    0.41663    0.42803    1.000
    O218     O        0.16447    0.46753    0.39733    1.000
    O219     O        0.24677    0.49393    0.45613    1.000
    O220     O        0.30617    0.51223    0.41613    1.000
    O221     O        0.25477    0.42120    0.43423    1.000
    O222     O        0.21607    0.38283    0.36643    1.000
    O223     O        0.11037    0.24803    0.59103    1.000
    O224     O        0.12317    0.28223    0.51033    1.000
    O225     O        0.39987    0.51933    0.40753    1.000
    O226     O        0.36827    0.48713    0.48213    1.000
    O227     O        0.15617    0.54683    0.40623    1.000
    O228     O        0.16437    0.52553    0.48873    1.000
    O229     O        0.18039    0.36157    0.48393    1.000
    O230     O        0.29207    0.46637    0.52233    1.000
    O231     O        0.18057    0.46613    0.51953    1.000
    N61      N        0.10287    0.32003    0.60763    1.000
    H271     H        0.10777    0.30503    0.63173    1.000
    H272     H        0.07717    0.30493    0.59573    1.000
    N62      N        0.29417    0.39653    0.63723    1.000
    H273     H        0.29677    0.40693    0.67133    1.000
    H274     H        0.31437    0.39113    0.63203    1.000
    N63      N        0.21627    0.51383    0.66443    1.000
    H275     H        0.19677    0.50793    0.68963    1.000
    H276     H        0.23047    0.54083    0.65993    1.000
    N64      N        0.12767    0.36613    0.34933    1.000
    H277     H        0.10067    0.34973    0.35203    1.000
    H278     H        0.13617    0.35923    0.31883    1.000
    N65      N        0.23517    0.55253    0.41423    1.000
    H279     H        0.23987    0.57653    0.42763    1.000
    H280     H        0.22127    0.54763    0.38263    1.000
    N66      N        0.32447    0.44423    0.37883    1.000
    H281     H        0.33507    0.42783    0.38313    1.000
    H282     H        0.34247    0.46643    0.36013    1.000
    C151     C        0.10787    0.35693    0.63543    1.000
    H283     H        0.08297    0.35773    0.63133    1.000
    H284     H        0.11197    0.35483    0.67433    1.000
    C152     C        0.14297    0.39663    0.61383    1.000
    C153     C        0.25587    0.35993    0.63253    1.000
    H285     H        0.26057    0.33853    0.61953    1.000
    H286     H        0.24387    0.35223    0.66893    1.000
    C154     C        0.22677    0.36223    0.59593    1.000
    C155     C        0.24137    0.49973    0.68133    1.000
    H287     H        0.26577    0.52243    0.69633    1.000
    H288     H        0.22797    0.48073    0.71113    1.000
    C156     C        0.25417    0.47873    0.63723    1.000
    C157     C        0.13707    0.40733    0.34543    1.000
    H289     H        0.15397    0.41963    0.31333    1.000
    H290     H        0.11207    0.40793    0.34023    1.000
    C158     C        0.15817    0.43153    0.39433    1.000
    C159     C        0.27737    0.55393    0.40303    1.000
    H291     H        0.29927    0.57823    0.41963    1.000
    H292     H        0.28227    0.55553    0.36373    1.000
    C160     C        0.27787    0.51753    0.42573    1.000
    C161     C        0.28577    0.42293    0.34853    1.000
    H293     H        0.28487    0.44133    0.32173    1.000
    H294     H        0.28477    0.40033    0.32863    1.000
    C162     C        0.24877    0.40703    0.38543    1.000
    C163     C        0.11327    0.25013    0.53783    1.000
    H295     H        0.10797    0.22683    0.51863    1.000
    C164     C        0.39787    0.50783    0.45563    1.000
    H296     H        0.42257    0.51653    0.47333    1.000
    C165     C        0.14747    0.53633    0.45673    1.000
    H297     H        0.12517    0.53723    0.47053    1.000
    Gd23     Gd       0.77052    0.54208    0.00042    1.000
    Gd24     Gd       0.88448    0.76483    0.84154    1.000
    Cu67     Cu       0.80759    0.66810    0.87691    1.000
    Cu68     Cu       0.96488    0.76956    0.91631    1.000
    Cu69     Cu       0.85869    0.82047    0.92790    1.000
    Cu70     Cu       0.82103    0.69314    0.74744    1.000
    Cu71     Cu       0.87141    0.84414    0.79902    1.000
    Cu72     Cu       0.97958    0.79342    0.78581    1.000
    O232     O        0.82593    0.72457    0.90177    1.000
    O233     O        0.81573    0.75917    0.96947    1.000
    O234     O        0.90663    0.72917    0.90457    1.000
    O235     O        0.85853    0.66687    0.92777    1.000
    O236     O        0.90043    0.80517    0.92547    1.000
    O237     O        0.94853    0.80487    0.97747    1.000
    O238     O        0.83923    0.74997    0.76137    1.000
    O239     O        0.83113    0.80087    0.73067    1.000
    O240     O        0.91343    0.82727    0.78947    1.000
    O241     O        0.97283    0.84557    0.74947    1.000
    O242     O        0.92143    0.75454    0.76757    1.000
    O243     O        0.88273    0.71617    0.69977    1.000
    O244     O        0.77703    0.58137    0.92437    1.000
    O245     O        0.78983    0.61557    0.84367    1.000
    O246     O        0.06653    0.85267    0.74087    1.000
    O247     O        0.03493    0.82047    0.81547    1.000
    O248     O        0.82283    0.88017    0.73957    1.000
    O249     O        0.83103    0.85887    0.82207    1.000
    O250     O        0.84705    0.69491    0.81727    1.000
    O251     O        0.95873    0.79971    0.85567    1.000
    O252     O        0.84723    0.79947    0.85287    1.000
    N67      N        0.76953    0.65337    0.94097    1.000
    H298     H        0.77443    0.63837    0.96507    1.000
    H299     H        0.74383    0.63827    0.92907    1.000
    N68      N        0.96083    0.72987    0.97057    1.000
    H300     H        0.96343    0.74027    0.00467    1.000
    H301     H        0.98103    0.72447    0.96537    1.000
    N69      N        0.88293    0.84717    0.99777    1.000
    H302     H        0.86343    0.84127    0.02297    1.000
    H303     H        0.89713    0.87417    0.99327    1.000
    N70      N        0.79433    0.69947    0.68267    1.000
    H304     H        0.76733    0.68307    0.68537    1.000
    H305     H        0.80283    0.69257    0.65217    1.000
    N71      N        0.90183    0.88587    0.74757    1.000
    H306     H        0.90653    0.90987    0.76097    1.000
    H307     H        0.88793    0.88097    0.71597    1.000
    N72      N        0.99113    0.77757    0.71217    1.000
    H308     H        0.00173    0.76117    0.71647    1.000
    H309     H        0.00913    0.79977    0.69347    1.000
    C166     C        0.77453    0.69027    0.96877    1.000
    H310     H        0.74963    0.69107    0.96467    1.000
    H311     H        0.77863    0.68817    0.00767    1.000
    C167     C        0.80963    0.72997    0.94717    1.000
    C168     C        0.92253    0.69327    0.96587    1.000
    H312     H        0.92723    0.67187    0.95287    1.000
    H313     H        0.91053    0.68557    0.00227    1.000
    C169     C        0.89343    0.69557    0.92927    1.000
    C170     C        0.90803    0.83307    0.01467    1.000
    H314     H        0.93243    0.85577    0.02967    1.000
    H315     H        0.89463    0.81407    0.04447    1.000
    C171     C        0.92083    0.81207    0.97057    1.000
    C172     C        0.80373    0.74067    0.67877    1.000
    H316     H        0.82063    0.75297    0.64667    1.000
    H317     H        0.77873    0.74127    0.67357    1.000
    C173     C        0.82483    0.76487    0.72767    1.000
    C174     C        0.94403    0.88727    0.73637    1.000
    H318     H        0.96593    0.91157    0.75297    1.000
    H319     H        0.94893    0.88887    0.69707    1.000
    C175     C        0.94453    0.85087    0.75907    1.000
    C176     C        0.95243    0.75627    0.68187    1.000
    H320     H        0.95153    0.77467    0.65507    1.000
    H321     H        0.95143    0.73367    0.66197    1.000
    C177     C        0.91543    0.74037    0.71877    1.000
    C178     C        0.77993    0.58347    0.87117    1.000
    H322     H        0.77463    0.56017    0.85197    1.000
    C179     C        0.06453    0.84117    0.78897    1.000
    H323     H        0.08923    0.84987    0.80667    1.000
    C180     C        0.81413    0.86967    0.79007    1.000
    H324     H        0.79183    0.87057    0.80387    1.000
    Gd25     Gd       0.12459    0.56178    0.33375    1.000
    Gd26     Gd       0.90183    0.45298    0.17487    1.000
    Cu73     Cu       0.99857    0.47283    0.21024    1.000
    Cu74     Cu       0.89711    0.52866    0.24964    1.000
    Cu75     Cu       0.84620    0.37156    0.26123    1.000
    Cu76     Cu       0.97353    0.46123    0.08077    1.000
    Cu77     Cu       0.82253    0.36061    0.13235    1.000
    Cu78     Cu       0.87325    0.51950    0.11914    1.000
    O253     O        0.94210    0.43470    0.23510    1.000
    O254     O        0.90750    0.38990    0.30280    1.000
    O255     O        0.93750    0.51080    0.23790    1.000
    O256     O        0.99980    0.52500    0.26110    1.000
    O257     O        0.86150    0.42860    0.25880    1.000
    O258     O        0.86180    0.47700    0.31080    1.000
    O259     O        0.91670    0.42260    0.09470    1.000
    O260     O        0.86580    0.36360    0.06400    1.000
    O261     O        0.83940    0.41950    0.12280    1.000
    O262     O        0.82110    0.46060    0.08280    1.000
    O263     O        0.91213    0.50023    0.10090    1.000
    O264     O        0.95050    0.49990    0.03310    1.000
    O265     O        0.08530    0.52900    0.25770    1.000
    O266     O        0.05110    0.50760    0.17700    1.000
    O267     O        0.81400    0.54720    0.07420    1.000
    O268     O        0.84620    0.54780    0.14880    1.000
    O269     O        0.78650    0.27600    0.07290    1.000
    O270     O        0.80780    0.30550    0.15540    1.000
    O271     O        0.97176    0.48548    0.15060    1.000
    O272     O        0.86696    0.49236    0.18900    1.000
    O273     O        0.86720    0.38110    0.18620    1.000
    N73      N        0.01330    0.44950    0.27430    1.000
    H325     H        0.02830    0.46940    0.29840    1.000
    H326     H        0.02840    0.43890    0.26240    1.000
    N74      N        0.93680    0.56430    0.30390    1.000
    H327     H        0.92640    0.55650    0.33800    1.000
    H328     H        0.94220    0.58990    0.29870    1.000
    N75      N        0.81950    0.36910    0.33110    1.000
    H329     H        0.82540    0.35550    0.35630    1.000
    H330     H        0.79250    0.35630    0.32660    1.000
    N76      N        0.96720    0.42820    0.01600    1.000
    H331     H        0.98360    0.41760    0.01870    1.000
    H332     H        0.97410    0.44360    0.98550    1.000
    N77      N        0.78080    0.34930    0.08090    1.000
    H333     H        0.75680    0.33000    0.09430    1.000
    H334     H        0.78570    0.34030    0.04930    1.000
    N78      N        0.88910    0.54690    0.04550    1.000
    H335     H        0.90550    0.57390    0.04980    1.000
    H336     H        0.86690    0.54270    0.02680    1.000
    C181     C        0.97640    0.41760    0.30210    1.000
    H337     H        0.97560    0.39190    0.29800    1.000
    H338     H        0.97850    0.42380    0.34100    1.000
    C182     C        0.93670    0.41300    0.28050    1.000
    C183     C        0.97340    0.56260    0.29920    1.000
    H339     H        0.99480    0.58870    0.28620    1.000
    H340     H        0.98110    0.55830    0.33560    1.000
    C184     C        0.97110    0.53120    0.26260    1.000
    C185     C        0.83360    0.40830    0.34800    1.000
    H341     H        0.81090    0.41000    0.36300    1.000
    H342     H        0.85260    0.41390    0.37780    1.000
    C186     C        0.85460    0.44210    0.30390    1.000
    C187     C        0.92600    0.39640    0.01210    1.000
    H343     H        0.91370    0.40100    0.98000    1.000
    H344     H        0.92540    0.37080    0.00690    1.000
    C188     C        0.90180    0.39330    0.06100    1.000
    C189     C        0.77940    0.39010    0.06970    1.000
    H345     H        0.75510    0.38770    0.08630    1.000
    H346     H        0.77780    0.39340    0.03040    1.000
    C190     C        0.81580    0.42700    0.09240    1.000
    C191     C        0.91040    0.52950    0.01520    1.000
    H347     H        0.89200    0.51020    0.98840    1.000
    H348     H        0.93300    0.55110    0.99530    1.000
    C192     C        0.92630    0.50840    0.05210    1.000
    C193     C        0.08320    0.52980    0.20450    1.000
    H349     H        0.10650    0.54780    0.18530    1.000
    C194     C        0.82550    0.55670    0.12230    1.000
    H350     H        0.81680    0.57270    0.14000    1.000
    C195     C        0.79700    0.27780    0.12340    1.000
    H351     H        0.79610    0.25460    0.13720    1.000
    Gd27     Gd       0.79126    0.89511    0.66708    1.000
    Gd28     Gd       0.56850    0.78631    0.50820    1.000
    Cu79     Cu       0.66524    0.80616    0.54357    1.000
    Cu80     Cu       0.56378    0.86199    0.58297    1.000
    Cu81     Cu       0.51287    0.70489    0.59456    1.000
    Cu82     Cu       0.64020    0.79456    0.41410    1.000
    Cu83     Cu       0.48920    0.69394    0.46568    1.000
    Cu84     Cu       0.53992    0.85283    0.45247    1.000
    O274     O        0.60877    0.76803    0.56843    1.000
    O275     O        0.57417    0.72323    0.63613    1.000
    O276     O        0.60417    0.84413    0.57123    1.000
    O277     O        0.66647    0.85833    0.59443    1.000
    O278     O        0.52817    0.76193    0.59213    1.000
    O279     O        0.52847    0.81033    0.64413    1.000
    O280     O        0.58337    0.75593    0.42803    1.000
    O281     O        0.53247    0.69693    0.39733    1.000
    O282     O        0.50607    0.75283    0.45613    1.000
    O283     O        0.48777    0.79393    0.41613    1.000
    O284     O        0.57880    0.83356    0.43423    1.000
    O285     O        0.61717    0.83323    0.36643    1.000
    O286     O        0.75197    0.86233    0.59103    1.000
    O287     O        0.71777    0.84093    0.51033    1.000
    O288     O        0.48067    0.88053    0.40753    1.000
    O289     O        0.51287    0.88113    0.48213    1.000
    O290     O        0.45317    0.60933    0.40623    1.000
    O291     O        0.47447    0.63883    0.48873    1.000
    O292     O        0.63843    0.81881    0.48393    1.000
    O293     O        0.53363    0.82569    0.52233    1.000
    O294     O        0.53387    0.71443    0.51953    1.000
    N79      N        0.67997    0.78283    0.60763    1.000
    H352     H        0.69497    0.80273    0.63173    1.000
    H353     H        0.69507    0.77223    0.59573    1.000
    N80      N        0.60347    0.89763    0.63723    1.000
    H354     H        0.59307    0.88983    0.67133    1.000
    H355     H        0.60887    0.92323    0.63203    1.000
    N81      N        0.48617    0.70243    0.66443    1.000
    H356     H        0.49207    0.68883    0.68963    1.000
    H357     H        0.45917    0.68963    0.65993    1.000
    N82      N        0.63387    0.76153    0.34933    1.000
    H358     H        0.65027    0.75093    0.35203    1.000
    H359     H        0.64077    0.77693    0.31883    1.000
    N83      N        0.44747    0.68263    0.41423    1.000
    H360     H        0.42347    0.66333    0.42763    1.000
    H361     H        0.45237    0.67363    0.38263    1.000
    N84      N        0.55577    0.88023    0.37883    1.000
    H362     H        0.57217    0.90723    0.38313    1.000
    H363     H        0.53357    0.87603    0.36013    1.000
    C196     C        0.64307    0.75093    0.63543    1.000
    H364     H        0.64227    0.72523    0.63133    1.000
    H365     H        0.64517    0.75713    0.67433    1.000
    C197     C        0.60337    0.74633    0.61383    1.000
    C198     C        0.64007    0.89593    0.63253    1.000
    H366     H        0.66147    0.92203    0.61953    1.000
    H367     H        0.64777    0.89163    0.66893    1.000
    C199     C        0.63777    0.86453    0.59593    1.000
    C200     C        0.50027    0.74163    0.68133    1.000
    H368     H        0.47757    0.74333    0.69633    1.000
    H369     H        0.51927    0.74723    0.71113    1.000
    C201     C        0.52127    0.77543    0.63723    1.000
    C202     C        0.59267    0.72973    0.34543    1.000
    H370     H        0.58037    0.73433    0.31333    1.000
    H371     H        0.59207    0.70413    0.34023    1.000
    C203     C        0.56847    0.72663    0.39433    1.000
    C204     C        0.44607    0.72343    0.40303    1.000
    H372     H        0.42177    0.72103    0.41963    1.000
    H373     H        0.44447    0.72673    0.36373    1.000
    C205     C        0.48247    0.76033    0.42573    1.000
    C206     C        0.57707    0.86283    0.34853    1.000
    H374     H        0.55867    0.84353    0.32173    1.000
    H375     H        0.59967    0.88443    0.32863    1.000
    C207     C        0.59297    0.84173    0.38543    1.000
    C208     C        0.74987    0.86313    0.53783    1.000
    H376     H        0.77317    0.88113    0.51863    1.000
    C209     C        0.49217    0.89003    0.45563    1.000
    H377     H        0.48347    0.90603    0.47333    1.000
    C210     C        0.46367    0.61113    0.45673    1.000
    H378     H        0.46277    0.58793    0.47053    1.000
    Gd29     Gd       0.45792    0.22845    0.00042    1.000
    Gd30     Gd       0.23517    0.11964    0.84154    1.000
    Cu85     Cu       0.33190    0.13950    0.87691    1.000
    Cu86     Cu       0.23044    0.19533    0.91631    1.000
    Cu87     Cu       0.17953    0.03823    0.92790    1.000
    Cu88     Cu       0.30686    0.12790    0.74744    1.000
    Cu89     Cu       0.15586    0.02728    0.79902    1.000
    Cu90     Cu       0.20658    0.18617    0.78581    1.000
    O295     O        0.27543    0.10137    0.90177    1.000
    O296     O        0.24083    0.05657    0.96947    1.000
    O297     O        0.27083    0.17747    0.90457    1.000
    O298     O        0.33313    0.19167    0.92777    1.000
    O299     O        0.19483    0.09527    0.92547    1.000
    O300     O        0.19513    0.14367    0.97747    1.000
    O301     O        0.25003    0.08927    0.76137    1.000
    O302     O        0.19913    0.03027    0.73067    1.000
    O303     O        0.17273    0.08617    0.78947    1.000
    O304     O        0.15443    0.12727    0.74947    1.000
    O305     O        0.24546    0.16690    0.76757    1.000
    O306     O        0.28383    0.16657    0.69977    1.000
    O307     O        0.41863    0.19567    0.92437    1.000
    O308     O        0.38443    0.17427    0.84367    1.000
    O309     O        0.14733    0.21387    0.74087    1.000
    O310     O        0.17953    0.21447    0.81547    1.000
    O311     O        0.11983    0.94267    0.73957    1.000
    O312     O        0.14113    0.97217    0.82207    1.000
    O313     O        0.30509    0.15215    0.81727    1.000
    O314     O        0.20029    0.15903    0.85567    1.000
    O315     O        0.20053    0.04777    0.85287    1.000
    N85      N        0.34663    0.11617    0.94097    1.000
    H379     H        0.36163    0.13607    0.96507    1.000
    H380     H        0.36173    0.10557    0.92907    1.000
    N86      N        0.27013    0.23097    0.97057    1.000
    H381     H        0.25973    0.22317    0.00467    1.000
    H382     H        0.27553    0.25657    0.96537    1.000
    N87      N        0.15283    0.03577    0.99777    1.000
    H383     H        0.15873    0.02217    0.02297    1.000
    H384     H        0.12583    0.02297    0.99327    1.000
    N88      N        0.30053    0.09487    0.68267    1.000
    H385     H        0.31693    0.08427    0.68537    1.000
    H386     H        0.30743    0.11027    0.65217    1.000
    N89      N        0.11413    0.01597    0.74757    1.000
    H387     H        0.09013    0.99667    0.76097    1.000
    H388     H        0.11903    0.00697    0.71597    1.000
    N90      N        0.22243    0.21357    0.71217    1.000
    H389     H        0.23883    0.24057    0.71647    1.000
    H390     H        0.20023    0.20937    0.69347    1.000
    C211     C        0.30973    0.08427    0.96877    1.000
    H391     H        0.30893    0.05857    0.96467    1.000
    H392     H        0.31183    0.09047    0.00767    1.000
    C212     C        0.27003    0.07967    0.94717    1.000
    C213     C        0.30673    0.22927    0.96587    1.000
    H393     H        0.32813    0.25537    0.95287    1.000
    H394     H        0.31443    0.22497    0.00227    1.000
    C214     C        0.30443    0.19787    0.92927    1.000
    C215     C        0.16693    0.07497    0.01467    1.000
    H395     H        0.14423    0.07667    0.02967    1.000
    H396     H        0.18593    0.08057    0.04447    1.000
    C216     C        0.18793    0.10877    0.97057    1.000
    C217     C        0.25933    0.06307    0.67877    1.000
    H397     H        0.24703    0.06767    0.64667    1.000
    H398     H        0.25873    0.03747    0.67357    1.000
    C218     C        0.23513    0.05997    0.72767    1.000
    C219     C        0.11273    0.05677    0.73637    1.000
    H399     H        0.08843    0.05437    0.75297    1.000
    H400     H        0.11113    0.06007    0.69707    1.000
    C220     C        0.14913    0.09367    0.75907    1.000
    C221     C        0.24373    0.19617    0.68187    1.000
    H401     H        0.22533    0.17687    0.65507    1.000
    H402     H        0.26633    0.21777    0.66197    1.000
    C222     C        0.25963    0.17507    0.71877    1.000
    C223     C        0.41653    0.19647    0.87117    1.000
    H403     H        0.43983    0.21447    0.85197    1.000
    C224     C        0.15883    0.22337    0.78897    1.000
    H404     H        0.15013    0.23937    0.80667    1.000
    C225     C        0.13033    0.94447    0.79007    1.000
    H405     H        0.12943    0.92127    0.80387    1.000
    Gd31     Gd       0.43822    0.56281    0.33375    1.000
    Gd32     Gd       0.54702    0.44886    0.17487    1.000
    Cu91     Cu       0.52717    0.52574    0.21024    1.000
    Cu92     Cu       0.47134    0.36845    0.24964    1.000
    Cu93     Cu       0.62844    0.47464    0.26123    1.000
    Cu94     Cu       0.53877    0.51230    0.08077    1.000
    Cu95     Cu       0.63939    0.46192    0.13235    1.000
    Cu96     Cu       0.48050    0.35375    0.11914    1.000
    O316     O        0.56530    0.50740    0.23510    1.000
    O317     O        0.61010    0.51760    0.30280    1.000
    O318     O        0.48920    0.42670    0.23790    1.000
    O319     O        0.47500    0.47480    0.26110    1.000
    O320     O        0.57140    0.43290    0.25880    1.000
    O321     O        0.52300    0.38480    0.31080    1.000
    O322     O        0.57740    0.49410    0.09470    1.000
    O323     O        0.63640    0.50220    0.06400    1.000
    O324     O        0.58050    0.41990    0.12280    1.000
    O325     O        0.53940    0.36050    0.08280    1.000
    O326     O        0.49977    0.41190    0.10090    1.000
    O327     O        0.50010    0.45060    0.03310    1.000
    O328     O        0.47100    0.55630    0.25770    1.000
    O329     O        0.49240    0.54350    0.17700    1.000
    O330     O        0.45280    0.26680    0.07420    1.000
    O331     O        0.45220    0.29840    0.14880    1.000
    O332     O        0.72400    0.51050    0.07290    1.000
    O333     O        0.69450    0.50230    0.15540    1.000
    O334     O        0.51452    0.48628    0.15060    1.000
    O335     O        0.50764    0.37460    0.18900    1.000
    O336     O        0.61890    0.48610    0.18620    1.000
    N91      N        0.55050    0.56380    0.27430    1.000
    H406     H        0.53060    0.55890    0.29840    1.000
    H407     H        0.56110    0.58950    0.26240    1.000
    N92      N        0.43570    0.37250    0.30390    1.000
    H408     H        0.44350    0.36990    0.33800    1.000
    H409     H        0.41010    0.35230    0.29870    1.000
    N93      N        0.63090    0.45040    0.33110    1.000
    H410     H        0.64450    0.46990    0.35630    1.000
    H411     H        0.64370    0.43620    0.32660    1.000
    N94      N        0.57180    0.53900    0.01600    1.000
    H412     H        0.58240    0.56600    0.01870    1.000
    H413     H        0.55640    0.53050    0.98550    1.000
    N95      N        0.65070    0.43150    0.08090    1.000
    H414     H        0.67000    0.42680    0.09430    1.000
    H415     H        0.65970    0.44540    0.04930    1.000
    N96      N        0.45310    0.34220    0.04550    1.000
    H416     H        0.42610    0.33160    0.04980    1.000
    H417     H        0.45730    0.32420    0.02680    1.000
    C226     C        0.58240    0.55880    0.30210    1.000
    H418     H        0.60810    0.58370    0.29800    1.000
    H419     H        0.57620    0.55470    0.34100    1.000
    C227     C        0.58700    0.52370    0.28050    1.000
    C228     C        0.43740    0.41080    0.29920    1.000
    H420     H        0.41130    0.40610    0.28620    1.000
    H421     H        0.44170    0.42280    0.33560    1.000
    C229     C        0.46880    0.43990    0.26260    1.000
    C230     C        0.59170    0.42530    0.34800    1.000
    H422     H        0.59000    0.40090    0.36300    1.000
    H423     H        0.58610    0.43870    0.37780    1.000
    C231     C        0.55790    0.41250    0.30390    1.000
    C232     C        0.60360    0.52960    0.01210    1.000
    H424     H        0.59900    0.51270    0.98000    1.000
    H425     H        0.62920    0.55460    0.00690    1.000
    C233     C        0.60670    0.50850    0.06100    1.000
    C234     C        0.60990    0.38930    0.06970    1.000
    H426     H        0.61230    0.36740    0.08630    1.000
    H427     H        0.60660    0.38440    0.03040    1.000
    C235     C        0.57300    0.38880    0.09240    1.000
    C236     C        0.47050    0.38090    0.01520    1.000
    H428     H        0.48980    0.38180    0.98840    1.000
    H429     H        0.44890    0.38190    0.99530    1.000
    C237     C        0.49160    0.41790    0.05210    1.000
    C238     C        0.47020    0.55340    0.20450    1.000
    H430     H        0.45220    0.55870    0.18530    1.000
    C239     C        0.44330    0.26880    0.12230    1.000
    H431     H        0.42730    0.24410    0.14000    1.000
    C240     C        0.72220    0.51920    0.12340    1.000
    H432     H        0.74540    0.54150    0.13720    1.000
    Gd33     Gd       0.10489    0.89614    0.66708    1.000
    Gd34     Gd       0.21369    0.78219    0.50820    1.000
    Cu97     Cu       0.19384    0.85907    0.54357    1.000
    Cu98     Cu       0.13801    0.70178    0.58297    1.000
    Cu99     Cu       0.29511    0.80797    0.59456    1.000
    Cu100    Cu       0.20544    0.84563    0.41410    1.000
    Cu101    Cu       0.30606    0.79525    0.46568    1.000
    Cu102    Cu       0.14717    0.68708    0.45247    1.000
    O337     O        0.23197    0.84073    0.56843    1.000
    O338     O        0.27677    0.85093    0.63613    1.000
    O339     O        0.15587    0.76003    0.57123    1.000
    O340     O        0.14167    0.80813    0.59443    1.000
    O341     O        0.23807    0.76623    0.59213    1.000
    O342     O        0.18967    0.71813    0.64413    1.000
    O343     O        0.24407    0.82743    0.42803    1.000
    O344     O        0.30307    0.83553    0.39733    1.000
    O345     O        0.24717    0.75323    0.45613    1.000
    O346     O        0.20607    0.69383    0.41613    1.000
    O347     O        0.16644    0.74523    0.43423    1.000
    O348     O        0.16677    0.78393    0.36643    1.000
    O349     O        0.13767    0.88963    0.59103    1.000
    O350     O        0.15907    0.87683    0.51033    1.000
    O351     O        0.11947    0.60013    0.40753    1.000
    O352     O        0.11887    0.63173    0.48213    1.000
    O353     O        0.39067    0.84383    0.40623    1.000
    O354     O        0.36117    0.83563    0.48873    1.000
    O355     O        0.18119    0.81961    0.48393    1.000
    O356     O        0.17431    0.70793    0.52233    1.000
    O357     O        0.28557    0.81943    0.51953    1.000
    N97      N        0.21717    0.89713    0.60763    1.000
    H433     H        0.19727    0.89223    0.63173    1.000
    H434     H        0.22777    0.92283    0.59573    1.000
    N98      N        0.10237    0.70583    0.63723    1.000
    H435     H        0.11017    0.70323    0.67133    1.000
    H436     H        0.07677    0.68563    0.63203    1.000
    N99      N        0.29757    0.78373    0.66443    1.000
    H437     H        0.31117    0.80323    0.68963    1.000
    H438     H        0.31037    0.76953    0.65993    1.000
    N100     N        0.23847    0.87233    0.34933    1.000
    H439     H        0.24907    0.89933    0.35203    1.000
    H440     H        0.22307    0.86383    0.31883    1.000
    N101     N        0.31737    0.76483    0.41423    1.000
    H441     H        0.33667    0.76013    0.42763    1.000
    H442     H        0.32637    0.77873    0.38263    1.000
    N102     N        0.11977    0.67553    0.37883    1.000
    H443     H        0.09277    0.66493    0.38313    1.000
    H444     H        0.12397    0.65753    0.36013    1.000
    C241     C        0.24907    0.89213    0.63543    1.000
    H445     H        0.27477    0.91703    0.63133    1.000
    H446     H        0.24287    0.88803    0.67433    1.000
    C242     C        0.25367    0.85703    0.61383    1.000
    C243     C        0.10407    0.74413    0.63253    1.000
    H447     H        0.07797    0.73943    0.61953    1.000
    H448     H        0.10837    0.75613    0.66893    1.000
    C244     C        0.13547    0.77323    0.59593    1.000
    C245     C        0.25837    0.75863    0.68133    1.000
    H449     H        0.25667    0.73423    0.69633    1.000
    H450     H        0.25277    0.77203    0.71113    1.000
    C246     C        0.22457    0.74583    0.63723    1.000
    C247     C        0.27027    0.86293    0.34543    1.000
    H451     H        0.26567    0.84603    0.31333    1.000
    H452     H        0.29587    0.88793    0.34023    1.000
    C248     C        0.27337    0.84183    0.39433    1.000
    C249     C        0.27657    0.72263    0.40303    1.000
    H453     H        0.27897    0.70073    0.41963    1.000
    H454     H        0.27327    0.71773    0.36373    1.000
    C250     C        0.23967    0.72213    0.42573    1.000
    C251     C        0.13717    0.71423    0.34853    1.000
    H455     H        0.15647    0.71513    0.32173    1.000
    H456     H        0.11557    0.71523    0.32863    1.000
    C252     C        0.15827    0.75123    0.38543    1.000
    C253     C        0.13687    0.88673    0.53783    1.000
    H457     H        0.11887    0.89203    0.51863    1.000
    C254     C        0.10997    0.60213    0.45563    1.000
    H458     H        0.09397    0.57743    0.47333    1.000
    C255     C        0.38887    0.85253    0.45673    1.000
    H459     H        0.41207    0.87483    0.47053    1.000
    Gd35     Gd       0.77155    0.22948    0.00042    1.000
    Gd36     Gd       0.88036    0.11552    0.84154    1.000
    Cu103    Cu       0.86050    0.19241    0.87691    1.000
    Cu104    Cu       0.80467    0.03512    0.91631    1.000
    Cu105    Cu       0.96177    0.14131    0.92790    1.000
    Cu106    Cu       0.87210    0.17897    0.74744    1.000
    Cu107    Cu       0.97272    0.12859    0.79902    1.000
    Cu108    Cu       0.81383    0.02042    0.78581    1.000
    O358     O        0.89863    0.17407    0.90177    1.000
    O359     O        0.94343    0.18427    0.96947    1.000
    O360     O        0.82253    0.09337    0.90457    1.000
    O361     O        0.80833    0.14147    0.92777    1.000
    O362     O        0.90473    0.09957    0.92547    1.000
    O363     O        0.85633    0.05147    0.97747    1.000
    O364     O        0.91073    0.16077    0.76137    1.000
    O365     O        0.96973    0.16887    0.73067    1.000
    O366     O        0.91383    0.08657    0.78947    1.000
    O367     O        0.87273    0.02717    0.74947    1.000
    O368     O        0.83310    0.07857    0.76757    1.000
    O369     O        0.83343    0.11727    0.69977    1.000
    O370     O        0.80433    0.22297    0.92437    1.000
    O371     O        0.82573    0.21017    0.84367    1.000
    O372     O        0.78613    0.93347    0.74087    1.000
    O373     O        0.78553    0.96507    0.81547    1.000
    O374     O        0.05733    0.17717    0.73957    1.000
    O375     O        0.02783    0.16897    0.82207    1.000
    O376     O        0.84785    0.15295    0.81727    1.000
    O377     O        0.84097    0.04127    0.85567    1.000
    O378     O        0.95223    0.15277    0.85287    1.000
    N103     N        0.88383    0.23047    0.94097    1.000
    H460     H        0.86393    0.22557    0.96507    1.000
    H461     H        0.89443    0.25617    0.92907    1.000
    N104     N        0.76903    0.03917    0.97057    1.000
    H462     H        0.77683    0.03657    0.00467    1.000
    H463     H        0.74343    0.01897    0.96537    1.000
    N105     N        0.96423    0.11707    0.99777    1.000
    H464     H        0.97783    0.13657    0.02297    1.000
    H465     H        0.97703    0.10287    0.99327    1.000
    N106     N        0.90513    0.20567    0.68267    1.000
    H466     H        0.91573    0.23267    0.68537    1.000
    H467     H        0.88973    0.19717    0.65217    1.000
    N107     N        0.98403    0.09817    0.74757    1.000
    H468     H        0.00333    0.09347    0.76097    1.000
    H469     H        0.99303    0.11207    0.71597    1.000
    N108     N        0.78643    0.00887    0.71217    1.000
    H470     H        0.75943    0.99827    0.71647    1.000
    H471     H        0.79063    0.99087    0.69347    1.000
    C256     C        0.91573    0.22547    0.96877    1.000
    H472     H        0.94143    0.25037    0.96467    1.000
    H473     H        0.90953    0.22137    0.00767    1.000
    C257     C        0.92033    0.19037    0.94717    1.000
    C258     C        0.77073    0.07747    0.96587    1.000
    H474     H        0.74463    0.07277    0.95287    1.000
    H475     H        0.77503    0.08947    0.00227    1.000
    C259     C        0.80213    0.10657    0.92927    1.000
    C260     C        0.92503    0.09197    0.01467    1.000
    H476     H        0.92333    0.06757    0.02967    1.000
    H477     H        0.91943    0.10537    0.04447    1.000
    C261     C        0.89123    0.07917    0.97057    1.000
    C262     C        0.93693    0.19627    0.67877    1.000
    H478     H        0.93233    0.17937    0.64667    1.000
    H479     H        0.96253    0.22127    0.67357    1.000
    C263     C        0.94003    0.17517    0.72767    1.000
    C264     C        0.94323    0.05597    0.73637    1.000
    H480     H        0.94563    0.03407    0.75297    1.000
    H481     H        0.93993    0.05107    0.69707    1.000
    C265     C        0.90633    0.05547    0.75907    1.000
    C266     C        0.80383    0.04757    0.68187    1.000
    H482     H        0.82313    0.04847    0.65507    1.000
    H483     H        0.78223    0.04857    0.66197    1.000
    C267     C        0.82493    0.08457    0.71877    1.000
    C268     C        0.80353    0.22007    0.87117    1.000
    H484     H        0.78553    0.22537    0.85197    1.000
    C269     C        0.77663    0.93547    0.78897    1.000
    H485     H        0.76063    0.91077    0.80667    1.000
    C270     C        0.05553    0.18587    0.79007    1.000
    H486     H        0.07873    0.20817    0.80387    1.000
