# CIF file generated by openbabel 3.1.0, see https://openbabel.org
data_I
_chemical_name_common 'PUWDEQ_charged'
_cell_length_a 9.9518
_cell_length_b 11.5761
_cell_length_c 15.5562
_cell_angle_alpha 72.377
_cell_angle_beta 83.165
_cell_angle_gamma 84.326
_space_group_name_H-M_alt 'P 1'
_space_group_name_Hall 'P 1'
loop_
    _symmetry_equiv_pos_as_xyz
    x,y,z
loop_
    _atom_site_label
    _atom_site_type_symbol
    _atom_site_fract_x
    _atom_site_fract_y
    _atom_site_fract_z
    _atom_site_occupancy
    Zn1      Zn       0.58540    0.90730    0.11220    1.000
    Zn2      Zn       0.41460    0.09270    0.88780    1.000
    H1       H        0.75910    0.61470    0.02320    1.000
    H2       H        0.76680    0.41250    0.99040    1.000
    H3       H        0.11000    0.75070    0.03900    1.000
    H4       H        0.51640    0.28350    0.12780    1.000
    H5       H        0.46570    0.46750    0.17680    1.000
    H6       H        0.56610    0.32110    0.85820    1.000
    H7       H        0.74970    0.70420    0.43460    1.000
    H8       H        0.71440    0.54810    0.56730    1.000
    H9       H        0.42150    0.62410    0.33760    1.000
    H10      H        0.24090    0.38530    0.97680    1.000
    H11      H        0.23320    0.58750    0.00960    1.000
    H12      H        0.89000    0.24930    0.96100    1.000
    H13      H        0.48360    0.71650    0.87220    1.000
    H14      H        0.53430    0.53250    0.82320    1.000
    H15      H        0.43390    0.67890    0.14180    1.000
    H16      H        0.25030    0.29580    0.56540    1.000
    H17      H        0.28560    0.45190    0.43270    1.000
    H18      H        0.57850    0.37590    0.66240    1.000
    C1       C        0.84290    0.80240    0.06160    1.000
    C2       C        0.92000    0.69770    0.03500    1.000
    C3       C        0.85530    0.60810    0.02070    1.000
    C4       C        0.92800    0.50390    0.00210    1.000
    C5       C        0.86300    0.40850    0.98770    1.000
    C6       C        0.06400    0.68790    0.02990    1.000
    C7       C        0.56930    0.14640    0.01580    1.000
    C8       C        0.54540    0.28290    0.99770    1.000
    C9       C        0.51950    0.33340    0.06670    1.000
    C10      C        0.49610    0.46670    0.04580    1.000
    C11      C        0.47010    0.51700    0.11560    1.000
    C12      C        0.54950    0.35790    0.90570    1.000
    C13      C        0.61480    0.77850    0.28570    1.000
    C14      C        0.58890    0.67900    0.37290    1.000
    C15      C        0.67550    0.65520    0.44240    1.000
    C16      C        0.65480    0.56250    0.52120    1.000
    C17      C        0.54430    0.48810    0.53420    1.000
    C18      C        0.48020    0.60830    0.38430    1.000
    C19      C        0.15710    0.19760    0.93840    1.000
    C20      C        0.08000    0.30230    0.96500    1.000
    C21      C        0.14470    0.39190    0.97930    1.000
    C22      C        0.07200    0.49610    0.99790    1.000
    C23      C        0.13700    0.59150    0.01230    1.000
    C24      C        0.93600    0.31210    0.97010    1.000
    C25      C        0.43070    0.85360    0.98420    1.000
    C26      C        0.45460    0.71710    0.00230    1.000
    C27      C        0.48050    0.66660    0.93330    1.000
    C28      C        0.50390    0.53330    0.95420    1.000
    C29      C        0.52990    0.48300    0.88440    1.000
    C30      C        0.45050    0.64210    0.09430    1.000
    C31      C        0.38520    0.22150    0.71430    1.000
    C32      C        0.41110    0.32100    0.62710    1.000
    C33      C        0.32450    0.34480    0.55760    1.000
    C34      C        0.34520    0.43750    0.47880    1.000
    C35      C        0.45570    0.51190    0.46580    1.000
    C36      C        0.51980    0.39170    0.61570    1.000
    O1       O        0.71330    0.80940    0.05610    1.000
    O2       O        0.90270    0.87250    0.08690    1.000
    O3       O        0.57900    0.08140    0.09750    1.000
    O4       O        0.58030    0.10490    0.95010    1.000
    O5       O        0.52180    0.80650    0.23250    1.000
    O6       O        0.72580    0.82630    0.27060    1.000
    O7       O        0.28670    0.19060    0.94390    1.000
    O8       O        0.09730    0.12750    0.91310    1.000
    O9       O        0.42100    0.91860    0.90250    1.000
    O10      O        0.41970    0.89510    0.04990    1.000
    O11      O        0.47820    0.19350    0.76750    1.000
    O12      O        0.27420    0.17370    0.72940    1.000
    H19      H        0.95100    0.90800    0.19700    1.000
    H20      H        0.79500    0.17590    0.23510    1.000
    H21      H        0.91530    0.16910    0.15840    1.000
    H22      H        0.78610    0.09110    0.17190    1.000
    H23      H        0.97530    0.05270    0.30190    1.000
    H24      H        0.84710    0.97420    0.31430    1.000
    H25      H        0.28450    0.08120    0.14240    1.000
    H26      H        0.17280    0.10810    0.21820    1.000
    H27      H        0.26080    0.98100    0.23860    1.000
    H28      H        0.06870    0.05750    0.10770    1.000
    H29      H        0.15710    0.93090    0.12750    1.000
    H30      H        0.10830    0.85430    0.33670    1.000
    H31      H        0.97470    0.78660    0.33910    1.000
    H32      H        0.16870    0.66490    0.31320    1.000
    H33      H        0.08270    0.70140    0.22720    1.000
    H34      H        0.21610    0.76980    0.22400    1.000
    C37      C        0.84730    0.12280    0.20300    1.000
    C38      C        0.91660    0.01960    0.26920    1.000
    C39      C        0.21660    0.04520    0.19190    1.000
    C40      C        0.11140    0.99220    0.15570    1.000
    C41      C        0.05290    0.82570    0.29930    1.000
    C42      C        0.13750    0.73230    0.26270    1.000
    N1       N        0.00130    0.93300    0.22690    1.000
    H35      H        0.04900    0.09200    0.80300    1.000
    H36      H        0.20500    0.82410    0.76490    1.000
    H37      H        0.08470    0.83090    0.84160    1.000
    H38      H        0.21390    0.90890    0.82810    1.000
    H39      H        0.02470    0.94730    0.69810    1.000
    H40      H        0.15290    0.02580    0.68570    1.000
    H41      H        0.71550    0.91880    0.85760    1.000
    H42      H        0.82720    0.89190    0.78180    1.000
    H43      H        0.73920    0.01900    0.76140    1.000
    H44      H        0.93130    0.94250    0.89230    1.000
    H45      H        0.84290    0.06910    0.87250    1.000
    H46      H        0.89170    0.14570    0.66330    1.000
    H47      H        0.02530    0.21340    0.66090    1.000
    H48      H        0.83130    0.33510    0.68680    1.000
    H49      H        0.91730    0.29860    0.77280    1.000
    H50      H        0.78390    0.23020    0.77600    1.000
    C43      C        0.15270    0.87720    0.79700    1.000
    C44      C        0.08340    0.98040    0.73080    1.000
    C45      C        0.78340    0.95480    0.80810    1.000
    C46      C        0.88860    0.00780    0.84430    1.000
    C47      C        0.94710    0.17430    0.70070    1.000
    C48      C        0.86250    0.26770    0.73730    1.000
    N2       N        0.99870    0.06700    0.77310    1.000
