# CIF file generated by openbabel 3.1.0, see https://openbabel.org
data_I
_chemical_name_common 'image0'
_cell_length_a 20.7929
_cell_length_b 12.4871
_cell_length_c 19.5025
_cell_angle_alpha 90
_cell_angle_beta 97.329
_cell_angle_gamma 90
_space_group_name_H-M_alt 'P 1'
_space_group_name_Hall 'P 1'
loop_
    _symmetry_equiv_pos_as_xyz
    x,y,z
loop_
    _atom_site_label
    _atom_site_type_symbol
    _atom_site_fract_x
    _atom_site_fract_y
    _atom_site_fract_z
    _atom_site_occupancy
    Cu1      Cu       0.30278    0.23703    0.18793    1.000
    Cu2      Cu       0.39069    0.37236    0.14997    1.000
    Cu3      Cu       0.51996    0.83561    0.43707    1.000
    O1       O        0.46110    0.71770    0.40950    1.000
    O2       O        0.05670    0.43320    0.57920    1.000
    O3       O        0.45310    0.26880    0.19550    1.000
    O4       O        0.37700    0.43620    0.24080    1.000
    O5       O        0.30900    0.31500    0.27480    1.000
    O6       O        0.07790    0.45170    0.46950    1.000
    N1       N        0.55610    0.82780    0.34100    1.000
    O7       O        0.41918    0.73150    0.51020    1.000
    O8       O        0.61821    0.27810    0.93230    1.000
    O9       O        0.81770    0.95880    0.10800    1.000
    O10      O        0.37960    0.14940    0.22160    1.000
    O11      O        0.74380    0.85070    0.14880    1.000
    N2       N        0.19270    0.55940    0.51240    1.000
    O12      O        0.69870    0.17340    0.90300    1.000
    O13      O        0.21940    0.38380    0.50640    1.000
    N3       N        0.54560    0.10720    0.20400    1.000
    C1       C        0.43680    0.17940    0.21600    1.000
    C2       C        0.65660    0.13500    0.00770    1.000
    N4       N        0.46850    0.46350    0.11610    1.000
    C3       C        0.42090    0.69120    0.45060    1.000
    C4       C        0.28600    0.44340    0.38740    1.000
    H1       H        0.25830    0.38570    0.37630    1.000
    C5       C        0.60060    0.08070    0.10300    1.000
    C6       C        0.08910    0.46830    0.53450    1.000
    C7       C        0.60250    0.14170    0.04290    1.000
    H2       H        0.56800    0.18610    0.02670    1.000
    C8       C        0.54100    0.08130    0.13840    1.000
    C9       C        0.65640    0.20110    0.94330    1.000
    O14      O        0.48710    0.05450    0.10570    1.000
    C10      C        0.49010    0.10140    0.24340    1.000
    H3       H        0.47290    0.02830    0.24210    1.000
    C11      C        0.27820    0.50620    0.44490    1.000
    C12      C        0.32210    0.58560    0.46360    1.000
    H4       H        0.31760    0.62720    0.50230    1.000
    C13      C        0.37880    0.54820    0.36670    1.000
    H5       H        0.41150    0.56390    0.33990    1.000
    C14      C        0.34230    0.39870    0.28260    1.000
    C15      C        0.70600    0.00750    0.09060    1.000
    C16      C        0.33490    0.46560    0.34610    1.000
    C17      C        0.65060    0.01370    0.12410    1.000
    H6       H        0.64800    0.97020    0.16240    1.000
    C18      C        0.22680    0.47720    0.49040    1.000
    C19      C        0.76010    0.93320    0.11800    1.000
    C20      C        0.70790    0.07130    0.03140    1.000
    H7       H        0.74430    0.07000    0.00830    1.000
    C21      C        0.14750    0.53780    0.56210    1.000
    H8       H        0.17070    0.50440    0.60350    1.000
    C22      C        0.37420    0.60620    0.42550    1.000
    C23      C        0.61890    0.81980    0.33830    1.000
    H9       H        0.64730    0.82490    0.37910    1.000
    C24      C        0.60290    0.15560    0.24730    1.000
    H10      H        0.64290    0.12130    0.23850    1.000
    H11      H        0.60580    0.23180    0.23870    1.000
    C25      C        0.19080    0.67130    0.48980    1.000
    H12      H        0.19040    0.67640    0.44010    1.000
    H13      H        0.22760    0.71100    0.51250    1.000
    C26      C        0.60180    0.79730    0.21600    1.000
    H14      H        0.61740    0.78580    0.17400    1.000
    C27      C        0.51570    0.82010    0.28240    1.000
    H15      H        0.47130    0.82340    0.28460    1.000
    C28      C        0.51960    0.13000    0.31770    1.000
    H16      H        0.50320    0.19850    0.33130    1.000
    H17      H        0.50860    0.07580    0.34990    1.000
    C29      C        0.12620    0.64840    0.57950    1.000
    H18      H        0.15540    0.67920    0.61710    1.000
    H19      H        0.08260    0.64750    0.59230    1.000
    C30      C        0.64420    0.80410    0.27590    1.000
    H20      H        0.68870    0.79830    0.27510    1.000
    C31      C        0.51760    0.40680    0.09620    1.000
    H21      H        0.51600    0.33260    0.09960    1.000
    C32      C        0.12860    0.71150    0.51130    1.000
    H22      H        0.09190    0.69440    0.47720    1.000
    H23      H        0.13000    0.78820    0.51930    1.000
    C33      C        0.57140    0.45270    0.07060    1.000
    H24      H        0.60430    0.41020    0.05710    1.000
    C34      C        0.53680    0.80750    0.21850    1.000
    H25      H        0.50750    0.80610    0.17820    1.000
    C35      C        0.47050    0.56910    0.10970    1.000
    H26      H        0.43790    0.61050    0.12480    1.000
    C36      C        0.52210    0.62120    0.07960    1.000
    H27      H        0.51970    0.69400    0.06970    1.000
    C37      C        0.58960    0.13500    0.31800    1.000
    H28      H        0.60920    0.06780    0.33450    1.000
    H29      H        0.60770    0.19180    0.34840    1.000
    C38      C        0.57380    0.56400    0.06600    1.000
    H30      H        0.61040    0.59810    0.05380    1.000
    Cu4      Cu       0.80278    0.73703    0.18793    1.000
    Cu5      Cu       0.89069    0.87236    0.14997    1.000
    Cu6      Cu       0.01996    0.33561    0.43707    1.000
    O15      O        0.96110    0.21770    0.40950    1.000
    O16      O        0.55670    0.93320    0.57920    1.000
    O17      O        0.95310    0.76880    0.19550    1.000
    O18      O        0.87700    0.93620    0.24080    1.000
    O19      O        0.80900    0.81500    0.27480    1.000
    O20      O        0.57790    0.95170    0.46950    1.000
    N5       N        0.05610    0.32780    0.34100    1.000
    O21      O        0.91918    0.23150    0.51020    1.000
    O22      O        0.11821    0.77810    0.93230    1.000
    O23      O        0.31770    0.45880    0.10800    1.000
    O24      O        0.87960    0.64940    0.22160    1.000
    O25      O        0.24380    0.35070    0.14880    1.000
    N6       N        0.69270    0.05940    0.51240    1.000
    O26      O        0.19870    0.67340    0.90300    1.000
    O27      O        0.71940    0.88380    0.50640    1.000
    N7       N        0.04560    0.60720    0.20400    1.000
    C39      C        0.93680    0.67940    0.21600    1.000
    C40      C        0.15660    0.63500    0.00770    1.000
    N8       N        0.96850    0.96350    0.11610    1.000
    C41      C        0.92090    0.19120    0.45060    1.000
    C42      C        0.78600    0.94340    0.38740    1.000
    H31      H        0.75830    0.88570    0.37630    1.000
    C43      C        0.10060    0.58070    0.10300    1.000
    C44      C        0.58910    0.96830    0.53450    1.000
    C45      C        0.10250    0.64170    0.04290    1.000
    H32      H        0.06800    0.68610    0.02670    1.000
    C46      C        0.04100    0.58130    0.13840    1.000
    C47      C        0.15640    0.70110    0.94330    1.000
    O28      O        0.98710    0.55450    0.10570    1.000
    C48      C        0.99010    0.60140    0.24340    1.000
    H33      H        0.97290    0.52830    0.24210    1.000
    C49      C        0.77820    0.00620    0.44490    1.000
    C50      C        0.82210    0.08560    0.46360    1.000
    H34      H        0.81760    0.12720    0.50230    1.000
    C51      C        0.87880    0.04820    0.36670    1.000
    H35      H        0.91150    0.06390    0.33990    1.000
    C52      C        0.84230    0.89870    0.28260    1.000
    C53      C        0.20600    0.50750    0.09060    1.000
    C54      C        0.83490    0.96560    0.34610    1.000
    C55      C        0.15060    0.51370    0.12410    1.000
    H36      H        0.14800    0.47020    0.16240    1.000
    C56      C        0.72680    0.97720    0.49040    1.000
    C57      C        0.26010    0.43320    0.11800    1.000
    C58      C        0.20790    0.57130    0.03140    1.000
    H37      H        0.24430    0.57000    0.00830    1.000
    C59      C        0.64750    0.03780    0.56210    1.000
    H38      H        0.67070    0.00440    0.60350    1.000
    C60      C        0.87420    0.10620    0.42550    1.000
    C61      C        0.11890    0.31980    0.33830    1.000
    H39      H        0.14730    0.32490    0.37910    1.000
    C62      C        0.10290    0.65560    0.24730    1.000
    H40      H        0.14290    0.62130    0.23850    1.000
    H41      H        0.10580    0.73180    0.23870    1.000
    C63      C        0.69080    0.17130    0.48980    1.000
    H42      H        0.69040    0.17640    0.44010    1.000
    H43      H        0.72760    0.21100    0.51250    1.000
    C64      C        0.10180    0.29730    0.21600    1.000
    H44      H        0.11740    0.28580    0.17400    1.000
    C65      C        0.01570    0.32010    0.28240    1.000
    H45      H        0.97130    0.32340    0.28460    1.000
    C66      C        0.01960    0.63000    0.31770    1.000
    H46      H        0.00320    0.69850    0.33130    1.000
    H47      H        0.00860    0.57580    0.34990    1.000
    C67      C        0.62620    0.14840    0.57950    1.000
    H48      H        0.65540    0.17920    0.61710    1.000
    H49      H        0.58260    0.14750    0.59230    1.000
    C68      C        0.14420    0.30410    0.27590    1.000
    H50      H        0.18870    0.29830    0.27510    1.000
    C69      C        0.01760    0.90680    0.09620    1.000
    H51      H        0.01600    0.83260    0.09960    1.000
    C70      C        0.62860    0.21150    0.51130    1.000
    H52      H        0.59190    0.19440    0.47720    1.000
    H53      H        0.63000    0.28820    0.51930    1.000
    C71      C        0.07140    0.95270    0.07060    1.000
    H54      H        0.10430    0.91020    0.05710    1.000
    C72      C        0.03680    0.30750    0.21850    1.000
    H55      H        0.00750    0.30610    0.17820    1.000
    C73      C        0.97050    0.06910    0.10970    1.000
    H56      H        0.93790    0.11050    0.12480    1.000
    C74      C        0.02210    0.12120    0.07960    1.000
    H57      H        0.01970    0.19400    0.06970    1.000
    C75      C        0.08960    0.63500    0.31800    1.000
    H58      H        0.10920    0.56780    0.33450    1.000
    H59      H        0.10770    0.69180    0.34840    1.000
    C76      C        0.07380    0.06400    0.06600    1.000
    H60      H        0.11040    0.09810    0.05380    1.000
    Cu7      Cu       0.69722    0.23703    0.81207    1.000
    Cu8      Cu       0.60931    0.37236    0.85003    1.000
    Cu9      Cu       0.48004    0.83561    0.56293    1.000
    O29      O        0.53890    0.71770    0.59050    1.000
    O30      O        0.94330    0.43320    0.42080    1.000
    O31      O        0.54690    0.26880    0.80450    1.000
    O32      O        0.62300    0.43620    0.75920    1.000
    O33      O        0.69100    0.31500    0.72520    1.000
    O34      O        0.92210    0.45170    0.53050    1.000
    N9       N        0.44390    0.82780    0.65900    1.000
    O35      O        0.58082    0.73150    0.48980    1.000
    O36      O        0.38179    0.27810    0.06770    1.000
    O37      O        0.18230    0.95880    0.89200    1.000
    O38      O        0.62040    0.14940    0.77840    1.000
    O39      O        0.25620    0.85070    0.85120    1.000
    N10      N        0.80730    0.55940    0.48760    1.000
    O40      O        0.30130    0.17340    0.09700    1.000
    O41      O        0.78060    0.38380    0.49360    1.000
    N11      N        0.45440    0.10720    0.79600    1.000
    C77      C        0.56320    0.17940    0.78400    1.000
    C78      C        0.34340    0.13500    0.99230    1.000
    N12      N        0.53150    0.46350    0.88390    1.000
    C79      C        0.57910    0.69120    0.54940    1.000
    C80      C        0.71400    0.44340    0.61260    1.000
    H61      H        0.74170    0.38570    0.62370    1.000
    C81      C        0.39940    0.08070    0.89700    1.000
    C82      C        0.91090    0.46830    0.46550    1.000
    C83      C        0.39750    0.14170    0.95710    1.000
    H62      H        0.43200    0.18610    0.97330    1.000
    C84      C        0.45900    0.08130    0.86160    1.000
    C85      C        0.34360    0.20110    0.05670    1.000
    O42      O        0.51290    0.05450    0.89430    1.000
    C86      C        0.50990    0.10140    0.75660    1.000
    H63      H        0.52710    0.02830    0.75790    1.000
    C87      C        0.72180    0.50620    0.55510    1.000
    C88      C        0.67790    0.58560    0.53640    1.000
    H64      H        0.68240    0.62720    0.49770    1.000
    C89      C        0.62120    0.54820    0.63330    1.000
    H65      H        0.58850    0.56390    0.66010    1.000
    C90      C        0.65770    0.39870    0.71740    1.000
    C91      C        0.29400    0.00750    0.90940    1.000
    C92      C        0.66510    0.46560    0.65390    1.000
    C93      C        0.34940    0.01370    0.87590    1.000
    H66      H        0.35200    0.97020    0.83760    1.000
    C94      C        0.77320    0.47720    0.50960    1.000
    C95      C        0.23990    0.93320    0.88200    1.000
    C96      C        0.29210    0.07130    0.96860    1.000
    H67      H        0.25570    0.07000    0.99170    1.000
    C97      C        0.85250    0.53780    0.43790    1.000
    H68      H        0.82930    0.50440    0.39650    1.000
    C98      C        0.62580    0.60620    0.57450    1.000
    C99      C        0.38110    0.81980    0.66170    1.000
    H69      H        0.35270    0.82490    0.62090    1.000
    C100     C        0.39710    0.15560    0.75270    1.000
    H70      H        0.35710    0.12130    0.76150    1.000
    H71      H        0.39420    0.23180    0.76130    1.000
    C101     C        0.80920    0.67130    0.51020    1.000
    H72      H        0.80960    0.67640    0.55990    1.000
    H73      H        0.77240    0.71100    0.48750    1.000
    C102     C        0.39820    0.79730    0.78400    1.000
    H74      H        0.38260    0.78580    0.82600    1.000
    C103     C        0.48430    0.82010    0.71760    1.000
    H75      H        0.52870    0.82340    0.71540    1.000
    C104     C        0.48040    0.13000    0.68230    1.000
    H76      H        0.49680    0.19850    0.66870    1.000
    H77      H        0.49140    0.07580    0.65010    1.000
    C105     C        0.87380    0.64840    0.42050    1.000
    H78      H        0.84460    0.67920    0.38290    1.000
    H79      H        0.91740    0.64750    0.40770    1.000
    C106     C        0.35580    0.80410    0.72410    1.000
    H80      H        0.31130    0.79830    0.72490    1.000
    C107     C        0.48240    0.40680    0.90380    1.000
    H81      H        0.48400    0.33260    0.90040    1.000
    C108     C        0.87140    0.71150    0.48870    1.000
    H82      H        0.90810    0.69440    0.52280    1.000
    H83      H        0.87000    0.78820    0.48070    1.000
    C109     C        0.42860    0.45270    0.92940    1.000
    H84      H        0.39570    0.41020    0.94290    1.000
    C110     C        0.46320    0.80750    0.78150    1.000
    H85      H        0.49250    0.80610    0.82180    1.000
    C111     C        0.52950    0.56910    0.89030    1.000
    H86      H        0.56210    0.61050    0.87520    1.000
    C112     C        0.47790    0.62120    0.92040    1.000
    H87      H        0.48030    0.69400    0.93030    1.000
    C113     C        0.41040    0.13500    0.68200    1.000
    H88      H        0.39080    0.06780    0.66550    1.000
    H89      H        0.39230    0.19180    0.65160    1.000
    C114     C        0.42620    0.56400    0.93400    1.000
    H90      H        0.38960    0.59810    0.94620    1.000
    Cu10     Cu       0.19722    0.73703    0.81207    1.000
    Cu11     Cu       0.10931    0.87236    0.85003    1.000
    Cu12     Cu       0.98004    0.33561    0.56293    1.000
    O43      O        0.03890    0.21770    0.59050    1.000
    O44      O        0.44330    0.93320    0.42080    1.000
    O45      O        0.04690    0.76880    0.80450    1.000
    O46      O        0.12300    0.93620    0.75920    1.000
    O47      O        0.19100    0.81500    0.72520    1.000
    O48      O        0.42210    0.95170    0.53050    1.000
    N13      N        0.94390    0.32780    0.65900    1.000
    O49      O        0.08082    0.23150    0.48980    1.000
    O50      O        0.88179    0.77810    0.06770    1.000
    O51      O        0.68230    0.45880    0.89200    1.000
    O52      O        0.12040    0.64940    0.77840    1.000
    O53      O        0.75620    0.35070    0.85120    1.000
    N14      N        0.30730    0.05940    0.48760    1.000
    O54      O        0.80130    0.67340    0.09700    1.000
    O55      O        0.28060    0.88380    0.49360    1.000
    N15      N        0.95440    0.60720    0.79600    1.000
    C115     C        0.06320    0.67940    0.78400    1.000
    C116     C        0.84340    0.63500    0.99230    1.000
    N16      N        0.03150    0.96350    0.88390    1.000
    C117     C        0.07910    0.19120    0.54940    1.000
    C118     C        0.21400    0.94340    0.61260    1.000
    H91      H        0.24170    0.88570    0.62370    1.000
    C119     C        0.89940    0.58070    0.89700    1.000
    C120     C        0.41090    0.96830    0.46550    1.000
    C121     C        0.89750    0.64170    0.95710    1.000
    H92      H        0.93200    0.68610    0.97330    1.000
    C122     C        0.95900    0.58130    0.86160    1.000
    C123     C        0.84360    0.70110    0.05670    1.000
    O56      O        0.01290    0.55450    0.89430    1.000
    C124     C        0.00990    0.60140    0.75660    1.000
    H93      H        0.02710    0.52830    0.75790    1.000
    C125     C        0.22180    0.00620    0.55510    1.000
    C126     C        0.17790    0.08560    0.53640    1.000
    H94      H        0.18240    0.12720    0.49770    1.000
    C127     C        0.12120    0.04820    0.63330    1.000
    H95      H        0.08850    0.06390    0.66010    1.000
    C128     C        0.15770    0.89870    0.71740    1.000
    C129     C        0.79400    0.50750    0.90940    1.000
    C130     C        0.16510    0.96560    0.65390    1.000
    C131     C        0.84940    0.51370    0.87590    1.000
    H96      H        0.85200    0.47020    0.83760    1.000
    C132     C        0.27320    0.97720    0.50960    1.000
    C133     C        0.73990    0.43320    0.88200    1.000
    C134     C        0.79210    0.57130    0.96860    1.000
    H97      H        0.75570    0.57000    0.99170    1.000
    C135     C        0.35250    0.03780    0.43790    1.000
    H98      H        0.32930    0.00440    0.39650    1.000
    C136     C        0.12580    0.10620    0.57450    1.000
    C137     C        0.88110    0.31980    0.66170    1.000
    H99      H        0.85270    0.32490    0.62090    1.000
    C138     C        0.89710    0.65560    0.75270    1.000
    H100     H        0.85710    0.62130    0.76150    1.000
    H101     H        0.89420    0.73180    0.76130    1.000
    C139     C        0.30920    0.17130    0.51020    1.000
    H102     H        0.30960    0.17640    0.55990    1.000
    H103     H        0.27240    0.21100    0.48750    1.000
    C140     C        0.89820    0.29730    0.78400    1.000
    H104     H        0.88260    0.28580    0.82600    1.000
    C141     C        0.98430    0.32010    0.71760    1.000
    H105     H        0.02870    0.32340    0.71540    1.000
    C142     C        0.98040    0.63000    0.68230    1.000
    H106     H        0.99680    0.69850    0.66870    1.000
    H107     H        0.99140    0.57580    0.65010    1.000
    C143     C        0.37380    0.14840    0.42050    1.000
    H108     H        0.34460    0.17920    0.38290    1.000
    H109     H        0.41740    0.14750    0.40770    1.000
    C144     C        0.85580    0.30410    0.72410    1.000
    H110     H        0.81130    0.29830    0.72490    1.000
    C145     C        0.98240    0.90680    0.90380    1.000
    H111     H        0.98400    0.83260    0.90040    1.000
    C146     C        0.37140    0.21150    0.48870    1.000
    H112     H        0.40810    0.19440    0.52280    1.000
    H113     H        0.37000    0.28820    0.48070    1.000
    C147     C        0.92860    0.95270    0.92940    1.000
    H114     H        0.89570    0.91020    0.94290    1.000
    C148     C        0.96320    0.30750    0.78150    1.000
    H115     H        0.99250    0.30610    0.82180    1.000
    C149     C        0.02950    0.06910    0.89030    1.000
    H116     H        0.06210    0.11050    0.87520    1.000
    C150     C        0.97790    0.12120    0.92040    1.000
    H117     H        0.98030    0.19400    0.93030    1.000
    C151     C        0.91040    0.63500    0.68200    1.000
    H118     H        0.89080    0.56780    0.66550    1.000
    H119     H        0.89230    0.69180    0.65160    1.000
    C152     C        0.92620    0.06400    0.93400    1.000
    H120     H        0.88960    0.09810    0.94620    1.000
