# CIF file generated by openbabel 3.1.0, see https://openbabel.org
data_I
_chemical_name_common 'image0'
_cell_length_a 13.6206
_cell_length_b 13.6206
_cell_length_c 8.1751
_cell_angle_alpha 90
_cell_angle_beta 90
_cell_angle_gamma 120
_space_group_name_H-M_alt 'P 1'
_space_group_name_Hall 'P 1'
loop_
    _symmetry_equiv_pos_as_xyz
    x,y,z
loop_
    _atom_site_label
    _atom_site_type_symbol
    _atom_site_fract_x
    _atom_site_fract_y
    _atom_site_fract_z
    _atom_site_occupancy
    Mn1      Mn       0.29561    0.33426    0.54383    1.000
    O1       O        0.22820    0.18040    0.40510    1.000
    C1       C        0.53030    0.32170    0.55370    1.000
    C2       C        0.35430    0.55610    0.77550    1.000
    O2       O        0.24430    0.05870    0.24650    1.000
    C3       C        0.26700    0.15880    0.28020    1.000
    N1       N        0.34480    0.21010    0.00420    1.000
    H1       H        0.40890    0.25780    0.95050    1.000
    H2       H        0.28520    0.20130    0.94510    1.000
    C4       C        0.34400    0.25500    0.16720    1.000
    H3       H        0.42100    0.28680    0.21080    1.000
    N2       N        0.36310    0.42510    0.30700    1.000
    H4       H        0.34650    0.48110    0.29950    1.000
    H5       H        0.43910    0.45740    0.30760    1.000
    C5       C        0.31850    0.35230    0.16100    1.000
    H6       H        0.35250    0.39750    0.06370    1.000
    H7       H        0.23720    0.32160    0.15460    1.000
    N3       N        0.44990    0.31930    0.60350    1.000
    N4       N        0.36600    0.49540    0.69160    1.000
    Mn2      Mn       0.66574    0.96135    0.54383    1.000
    O3       O        0.81960    0.04780    0.40510    1.000
    C6       C        0.67830    0.20860    0.55370    1.000
    C7       C        0.44390    0.79820    0.77550    1.000
    O4       O        0.94130    0.18560    0.24650    1.000
    C8       C        0.84120    0.10820    0.28020    1.000
    N5       N        0.78990    0.13470    0.00420    1.000
    H8       H        0.74220    0.15110    0.95050    1.000
    H9       H        0.79870    0.08390    0.94510    1.000
    C9       C        0.74500    0.08900    0.16720    1.000
    H10      H        0.71320    0.13420    0.21080    1.000
    N6       N        0.57490    0.93800    0.30700    1.000
    H11      H        0.51890    0.86540    0.29950    1.000
    H12      H        0.54260    0.98170    0.30760    1.000
    C10      C        0.64770    0.96620    0.16100    1.000
    H13      H        0.60250    0.95500    0.06370    1.000
    H14      H        0.67840    0.91560    0.15460    1.000
    N7       N        0.68070    0.13060    0.60350    1.000
    N8       N        0.50460    0.87060    0.69160    1.000
    Mn3      Mn       0.03865    0.70439    0.54383    1.000
    O5       O        0.95220    0.77180    0.40510    1.000
    C11      C        0.79140    0.46970    0.55370    1.000
    C12      C        0.20180    0.64570    0.77550    1.000
    O6       O        0.81440    0.75570    0.24650    1.000
    C13      C        0.89180    0.73300    0.28020    1.000
    N9       N        0.86530    0.65520    0.00420    1.000
    H15      H        0.84890    0.59110    0.95050    1.000
    H16      H        0.91610    0.71480    0.94510    1.000
    C14      C        0.91100    0.65600    0.16720    1.000
    H17      H        0.86580    0.57900    0.21080    1.000
    N10      N        0.06200    0.63690    0.30700    1.000
    H18      H        0.13460    0.65350    0.29950    1.000
    H19      H        0.01830    0.56090    0.30760    1.000
    C15      C        0.03380    0.68150    0.16100    1.000
    H20      H        0.04500    0.64750    0.06370    1.000
    H21      H        0.08440    0.76280    0.15460    1.000
    N11      N        0.86940    0.55010    0.60350    1.000
    N12      N        0.12940    0.63400    0.69160    1.000
    Mn4      Mn       0.70439    0.66574    0.04383    1.000
    O7       O        0.77180    0.81960    0.90510    1.000
    C16      C        0.46970    0.67830    0.05370    1.000
    C17      C        0.64570    0.44390    0.27550    1.000
    O8       O        0.75570    0.94130    0.74650    1.000
    C18      C        0.73300    0.84120    0.78020    1.000
    N13      N        0.65520    0.78990    0.50420    1.000
    H22      H        0.59110    0.74220    0.45050    1.000
    H23      H        0.71480    0.79870    0.44510    1.000
    C19      C        0.65600    0.74500    0.66720    1.000
    H24      H        0.57900    0.71320    0.71080    1.000
    N14      N        0.63690    0.57490    0.80700    1.000
    H25      H        0.65350    0.51890    0.79950    1.000
    H26      H        0.56090    0.54260    0.80760    1.000
    C20      C        0.68150    0.64770    0.66100    1.000
    H27      H        0.64750    0.60250    0.56370    1.000
    H28      H        0.76280    0.67840    0.65460    1.000
    N15      N        0.55010    0.68070    0.10350    1.000
    N16      N        0.63400    0.50460    0.19160    1.000
    Mn5      Mn       0.33426    0.03865    0.04383    1.000
    O9       O        0.18040    0.95220    0.90510    1.000
    C21      C        0.32170    0.79140    0.05370    1.000
    C22      C        0.55610    0.20180    0.27550    1.000
    O10      O        0.05870    0.81440    0.74650    1.000
    C23      C        0.15880    0.89180    0.78020    1.000
    N17      N        0.21010    0.86530    0.50420    1.000
    H29      H        0.25780    0.84890    0.45050    1.000
    H30      H        0.20130    0.91610    0.44510    1.000
    C24      C        0.25500    0.91100    0.66720    1.000
    H31      H        0.28680    0.86580    0.71080    1.000
    N18      N        0.42510    0.06200    0.80700    1.000
    H32      H        0.48110    0.13460    0.79950    1.000
    H33      H        0.45740    0.01830    0.80760    1.000
    C25      C        0.35230    0.03380    0.66100    1.000
    H34      H        0.39750    0.04500    0.56370    1.000
    H35      H        0.32160    0.08440    0.65460    1.000
    N19      N        0.31930    0.86940    0.10350    1.000
    N20      N        0.49540    0.12940    0.19160    1.000
    Mn6      Mn       0.96135    0.29561    0.04383    1.000
    O11      O        0.04780    0.22820    0.90510    1.000
    C26      C        0.20860    0.53030    0.05370    1.000
    C27      C        0.79820    0.35430    0.27550    1.000
    O12      O        0.18560    0.24430    0.74650    1.000
    C28      C        0.10820    0.26700    0.78020    1.000
    N21      N        0.13470    0.34480    0.50420    1.000
    H36      H        0.15110    0.40890    0.45050    1.000
    H37      H        0.08390    0.28520    0.44510    1.000
    C29      C        0.08900    0.34400    0.66720    1.000
    H38      H        0.13420    0.42100    0.71080    1.000
    N22      N        0.93800    0.36310    0.80700    1.000
    H39      H        0.86540    0.34650    0.79950    1.000
    H40      H        0.98170    0.43910    0.80760    1.000
    C30      C        0.96620    0.31850    0.66100    1.000
    H41      H        0.95500    0.35250    0.56370    1.000
    H42      H        0.91560    0.23720    0.65460    1.000
    N23      N        0.13060    0.44990    0.10350    1.000
    N24      N        0.87060    0.36600    0.19160    1.000
    Cr1      Cr       0.33333    0.66667    0.92457    1.000
    Cr2      Cr       0.66667    0.33333    0.42457    1.000
