# CIF file generated by openbabel 3.1.0, see https://openbabel.org
data_I
_chemical_name_common 'image0'
_cell_length_a 6.6288
_cell_length_b 16.7276
_cell_length_c 12.8336
_cell_angle_alpha 90
_cell_angle_beta 90
_cell_angle_gamma 90
_space_group_name_H-M_alt 'P 1'
_space_group_name_Hall 'P 1'
loop_
    _symmetry_equiv_pos_as_xyz
    x,y,z
loop_
    _atom_site_label
    _atom_site_type_symbol
    _atom_site_fract_x
    _atom_site_fract_y
    _atom_site_fract_z
    _atom_site_occupancy
    O1       O        0.16576    0.16835    0.84288    1.000
    C1       C        0.80910    0.03544    0.96750    1.000
    O2       O        0.66576    0.66835    0.34288    1.000
    C2       C        0.30910    0.53544    0.46750    1.000
    O3       O        0.83424    0.33165    0.84288    1.000
    C3       C        0.19090    0.46456    0.96750    1.000
    O4       O        0.33424    0.83165    0.34288    1.000
    C4       C        0.69090    0.96456    0.46750    1.000
    O5       O        0.83424    0.66835    0.15712    1.000
    C5       C        0.19090    0.53544    0.03250    1.000
    O6       O        0.33424    0.16835    0.65712    1.000
    C6       C        0.69090    0.03544    0.53250    1.000
    O7       O        0.16576    0.83165    0.15712    1.000
    C7       C        0.80910    0.96456    0.03250    1.000
    O8       O        0.66576    0.33165    0.65712    1.000
    C8       C        0.30910    0.46456    0.53250    1.000
    O9       O        0.83424    0.83165    0.15712    1.000
    C9       C        0.19090    0.96456    0.03250    1.000
    O10      O        0.33424    0.33165    0.65712    1.000
    C10      C        0.69090    0.46456    0.53250    1.000
    O11      O        0.16576    0.66835    0.15712    1.000
    C11      C        0.80910    0.53544    0.03250    1.000
    O12      O        0.66576    0.16835    0.65712    1.000
    C12      C        0.30910    0.03544    0.53250    1.000
    O13      O        0.16576    0.33165    0.84288    1.000
    C13      C        0.80910    0.46456    0.96750    1.000
    O14      O        0.66576    0.83165    0.34288    1.000
    C14      C        0.30910    0.96456    0.46750    1.000
    O15      O        0.83424    0.16835    0.84288    1.000
    C15      C        0.19090    0.03544    0.96750    1.000
    O16      O        0.33424    0.66835    0.34288    1.000
    C16      C        0.69090    0.53544    0.46750    1.000
    Al1      Al       0.25000    0.25000    0.75000    1.000
    Al2      Al       0.75000    0.25000    0.75000    1.000
    Al3      Al       0.75000    0.75000    0.25000    1.000
    Al4      Al       0.25000    0.75000    0.25000    1.000
    O17      O        0.00000    0.25000    0.68570    1.000
    O18      O        0.50000    0.75000    0.18570    1.000
    O19      O        0.00000    0.75000    0.31430    1.000
    O20      O        0.50000    0.25000    0.81430    1.000
    C17      C        0.00000    0.06220    0.94640    1.000
    C18      C        0.00000    0.13700    0.87160    1.000
    C19      C        0.50000    0.56220    0.44640    1.000
    C20      C        0.50000    0.63700    0.37160    1.000
    C21      C        0.00000    0.43780    0.94640    1.000
    C22      C        0.00000    0.36300    0.87160    1.000
    C23      C        0.50000    0.93780    0.44640    1.000
    C24      C        0.50000    0.86300    0.37160    1.000
    C25      C        0.00000    0.56220    0.05360    1.000
    C26      C        0.00000    0.63700    0.12840    1.000
    C27      C        0.50000    0.06220    0.55360    1.000
    C28      C        0.50000    0.13700    0.62840    1.000
    C29      C        0.00000    0.93780    0.05360    1.000
    C30      C        0.00000    0.86300    0.12840    1.000
    C31      C        0.50000    0.43780    0.55360    1.000
    C32      C        0.50000    0.36300    0.62840    1.000
