# CIF file generated by openbabel 3.1.0, see https://openbabel.org
data_I
_chemical_name_common 'image0'
_cell_length_a 14.3196
_cell_length_b 16.255
_cell_length_c 8.8552
_cell_angle_alpha 90
_cell_angle_beta 90.134
_cell_angle_gamma 90
_space_group_name_H-M_alt 'P 1'
_space_group_name_Hall 'P 1'
loop_
    _symmetry_equiv_pos_as_xyz
    x,y,z
loop_
    _atom_site_label
    _atom_site_type_symbol
    _atom_site_fract_x
    _atom_site_fract_y
    _atom_site_fract_z
    _atom_site_occupancy
    Ga1      Ga       0.97318    0.12912    0.58679    1.000
    Ga2      Ga       0.46346    0.27024    0.36563    1.000
    Zn1      Zn       0.13163    0.16146    0.19065    1.000
    Zn2      Zn       0.36469    0.03820    0.42192    1.000
    P1       P        0.13760    0.03131    0.44737    1.000
    P2       P        0.02529    0.21227    0.88804    1.000
    P3       P        0.52757    0.13143    0.58800    1.000
    P4       P        0.35484    0.15297    0.14662    1.000
    O1       O        0.08230    0.06660    0.58140    1.000
    O2       O        0.09790    0.06320    0.29880    1.000
    O3       O        0.13060    0.93680    0.45240    1.000
    O4       O        0.23850    0.05670    0.47350    1.000
    O5       O        0.05320    0.15320    0.01410    1.000
    O6       O        0.95860    0.16550    0.78380    1.000
    O7       O        0.11240    0.23980    0.80150    1.000
    O8       O        0.97160    0.28590    0.94850    1.000
    O9       O        0.43090    0.09280    0.58020    1.000
    O10      O        0.53820    0.19820    0.46900    1.000
    O11      O        0.60560    0.07200    0.55930    1.000
    O12      O        0.54240    0.16770    0.74490    1.000
    O13      O        0.25300    0.14570    0.10700    1.000
    O14      O        0.40990    0.15660    0.99820    1.000
    O15      O        0.39220    0.07620    0.22610    1.000
    O16      O        0.36900    0.22830    0.24470    1.000
    Ga3      Ga       0.02682    0.62912    0.91321    1.000
    Ga4      Ga       0.53654    0.77024    0.13437    1.000
    Zn3      Zn       0.86837    0.66146    0.30935    1.000
    Zn4      Zn       0.63531    0.53820    0.07808    1.000
    P5       P        0.86240    0.53131    0.05263    1.000
    P6       P        0.97471    0.71227    0.61196    1.000
    P7       P        0.47243    0.63143    0.91200    1.000
    P8       P        0.64516    0.65297    0.35338    1.000
    O17      O        0.91770    0.56660    0.91860    1.000
    O18      O        0.90210    0.56320    0.20120    1.000
    O19      O        0.86940    0.43680    0.04760    1.000
    O20      O        0.76150    0.55670    0.02650    1.000
    O21      O        0.94680    0.65320    0.48590    1.000
    O22      O        0.04140    0.66550    0.71620    1.000
    O23      O        0.88760    0.73980    0.69850    1.000
    O24      O        0.02840    0.78590    0.55150    1.000
    O25      O        0.56910    0.59280    0.91980    1.000
    O26      O        0.46180    0.69820    0.03100    1.000
    O27      O        0.39440    0.57200    0.94070    1.000
    O28      O        0.45760    0.66770    0.75510    1.000
    O29      O        0.74700    0.64570    0.39300    1.000
    O30      O        0.59010    0.65660    0.50180    1.000
    O31      O        0.60780    0.57620    0.27390    1.000
    O32      O        0.63100    0.72830    0.25530    1.000
    Ga5      Ga       0.02682    0.87088    0.41321    1.000
    Ga6      Ga       0.53654    0.72976    0.63437    1.000
    Zn5      Zn       0.86837    0.83854    0.80935    1.000
    Zn6      Zn       0.63531    0.96180    0.57808    1.000
    P9       P        0.86240    0.96869    0.55263    1.000
    P10      P        0.97471    0.78773    0.11196    1.000
    P11      P        0.47243    0.86857    0.41200    1.000
    P12      P        0.64516    0.84703    0.85338    1.000
    O33      O        0.91770    0.93340    0.41860    1.000
    O34      O        0.90210    0.93680    0.70120    1.000
    O35      O        0.86940    0.06320    0.54760    1.000
    O36      O        0.76150    0.94330    0.52650    1.000
    O37      O        0.94680    0.84680    0.98590    1.000
    O38      O        0.04140    0.83450    0.21620    1.000
    O39      O        0.88760    0.76020    0.19850    1.000
    O40      O        0.02840    0.71410    0.05150    1.000
    O41      O        0.56910    0.90720    0.41980    1.000
    O42      O        0.46180    0.80180    0.53100    1.000
    O43      O        0.39440    0.92800    0.44070    1.000
    O44      O        0.45760    0.83230    0.25510    1.000
    O45      O        0.74700    0.85430    0.89300    1.000
    O46      O        0.59010    0.84340    0.00180    1.000
    O47      O        0.60780    0.92380    0.77390    1.000
    O48      O        0.63100    0.77170    0.75530    1.000
    Ga7      Ga       0.97318    0.37088    0.08679    1.000
    Ga8      Ga       0.46346    0.22976    0.86563    1.000
    Zn7      Zn       0.13163    0.33854    0.69065    1.000
    Zn8      Zn       0.36469    0.46180    0.92192    1.000
    P13      P        0.13760    0.46869    0.94737    1.000
    P14      P        0.02529    0.28773    0.38804    1.000
    P15      P        0.52757    0.36857    0.08800    1.000
    P16      P        0.35484    0.34703    0.64662    1.000
    O49      O        0.08230    0.43340    0.08140    1.000
    O50      O        0.09790    0.43680    0.79880    1.000
    O51      O        0.13060    0.56320    0.95240    1.000
    O52      O        0.23850    0.44330    0.97350    1.000
    O53      O        0.05320    0.34680    0.51410    1.000
    O54      O        0.95860    0.33450    0.28380    1.000
    O55      O        0.11240    0.26020    0.30150    1.000
    O56      O        0.97160    0.21410    0.44850    1.000
    O57      O        0.43090    0.40720    0.08020    1.000
    O58      O        0.53820    0.30180    0.96900    1.000
    O59      O        0.60560    0.42800    0.05930    1.000
    O60      O        0.54240    0.33230    0.24490    1.000
    O61      O        0.25300    0.35430    0.60700    1.000
    O62      O        0.40990    0.34340    0.49820    1.000
    O63      O        0.39220    0.42380    0.72610    1.000
    O64      O        0.36900    0.27170    0.74470    1.000
