# CIF file generated by openbabel 3.1.0, see https://openbabel.org
data_I
_chemical_name_common 'image0'
_cell_length_a 12.483
_cell_length_b 12.483
_cell_length_c 12.719
_cell_angle_alpha 90
_cell_angle_beta 90
_cell_angle_gamma 90
_space_group_name_H-M_alt 'P 1'
_space_group_name_Hall 'P 1'
loop_
    _symmetry_equiv_pos_as_xyz
    x,y,z
loop_
    _atom_site_label
    _atom_site_type_symbol
    _atom_site_fract_x
    _atom_site_fract_y
    _atom_site_fract_z
    _atom_site_occupancy
    Cd1      Cd       0.96046    0.24420    0.08709    1.000
    C1       C        0.06960    0.34550    0.18940    1.000
    C2       C        0.88420    0.37080    0.99040    1.000
    C3       C        0.08630    0.14510    0.01840    1.000
    C4       C        0.87490    0.16450    0.21540    1.000
    Cd2      Cd       0.03954    0.75580    0.58709    1.000
    C5       C        0.93040    0.65450    0.68940    1.000
    C6       C        0.11580    0.62920    0.49040    1.000
    C7       C        0.91370    0.85490    0.51840    1.000
    C8       C        0.12510    0.83550    0.71540    1.000
    Cd3      Cd       0.25580    0.46046    0.33709    1.000
    C9       C        0.15450    0.56960    0.43940    1.000
    C10      C        0.12920    0.38420    0.24040    1.000
    C11      C        0.35490    0.58630    0.26840    1.000
    C12      C        0.33550    0.37490    0.46540    1.000
    Cd4      Cd       0.74420    0.53954    0.83709    1.000
    C13      C        0.84550    0.43040    0.93940    1.000
    C14      C        0.87080    0.61580    0.74040    1.000
    C15      C        0.64510    0.41370    0.76840    1.000
    C16      C        0.66450    0.62510    0.96540    1.000
    Cd5      Cd       0.53954    0.74420    0.16291    1.000
    C17      C        0.43040    0.84550    0.06060    1.000
    C18      C        0.61580    0.87080    0.25960    1.000
    C19      C        0.41370    0.64510    0.23160    1.000
    C20      C        0.62510    0.66450    0.03460    1.000
    Cd6      Cd       0.46046    0.25580    0.66291    1.000
    C21      C        0.56960    0.15450    0.56060    1.000
    C22      C        0.38420    0.12920    0.75960    1.000
    C23      C        0.58630    0.35490    0.73160    1.000
    C24      C        0.37490    0.33550    0.53460    1.000
    Cd7      Cd       0.24420    0.96046    0.91291    1.000
    C25      C        0.34550    0.06960    0.81060    1.000
    C26      C        0.37080    0.88420    0.00960    1.000
    C27      C        0.14510    0.08630    0.98160    1.000
    C28      C        0.16450    0.87490    0.78460    1.000
    Cd8      Cd       0.75580    0.03954    0.41291    1.000
    C29      C        0.65450    0.93040    0.31060    1.000
    C30      C        0.62920    0.11580    0.50960    1.000
    C31      C        0.85490    0.91370    0.48160    1.000
    C32      C        0.83550    0.12510    0.28460    1.000
