# CIF file generated by openbabel 3.1.0, see https://openbabel.org
data_I
_chemical_name_common 'image0'
_cell_length_a 13.2579
_cell_length_b 11.438
_cell_length_c 28.745
_cell_angle_alpha 90
_cell_angle_beta 99.887
_cell_angle_gamma 90
_space_group_name_H-M_alt 'P 1'
_space_group_name_Hall 'P 1'
loop_
    _symmetry_equiv_pos_as_xyz
    x,y,z
loop_
    _atom_site_label
    _atom_site_type_symbol
    _atom_site_fract_x
    _atom_site_fract_y
    _atom_site_fract_z
    _atom_site_occupancy
    Mn1      Mn       0.95899    0.54889    0.66863    1.000
    Mn2      Mn       0.14660    0.82855    0.63550    1.000
    Mn3      Mn       0.71472    0.79780    0.85688    1.000
    O1       O        0.98540    0.86420    0.62988    1.000
    O2       O        0.55960    0.75130    0.86279    1.000
    O3       O        0.17370    0.51990    0.38561    1.000
    O4       O        0.05070    0.52410    0.61572    1.000
    O5       O        0.89770    0.72040    0.65734    1.000
    O6       O        0.64540    0.03580    0.78101    1.000
    O7       O        0.23030    0.66600    0.43285    1.000
    O8       O        0.48400    0.87630    0.80785    1.000
    O9       O        0.08060    0.60010    0.72428    1.000
    O10      O        0.16340    0.75890    0.70468    1.000
    O11      O        0.14140    0.67430    0.59432    1.000
    O12      O        0.71010    0.85440    0.78721    1.000
    N1       N        0.78340    0.10950    0.66748    1.000
    N2       N        0.32550    0.51120    0.82730    1.000
    N3       N        0.10820    0.32710    0.50191    1.000
    C1       C        0.85110    0.91460    0.67017    1.000
    C2       C        0.39830    0.70110    0.81803    1.000
    C3       C        0.24180    0.64500    0.76880    1.000
    C4       C        0.11940    0.50790    0.54542    1.000
    C5       C        0.31880    0.72640    0.78194    1.000
    H1       H        0.31670    0.79940    0.76610    1.000
    C6       C        0.91800    0.82580    0.65066    1.000
    C7       C        0.84150    0.02640    0.65212    1.000
    H2       H        0.87800    0.04590    0.62750    1.000
    C8       C        0.15280    0.56540    0.50853    1.000
    H3       H        0.17020    0.64600    0.51120    1.000
    C9       C        0.10220    0.57500    0.58903    1.000
    C10      C        0.39800    0.59260    0.84056    1.000
    H4       H        0.45130    0.57570    0.86630    1.000
    C11      C        0.19010    0.56660    0.42629    1.000
    C12      C        0.74600    0.97360    0.72558    1.000
    C13      C        0.24930    0.53850    0.79207    1.000
    H5       H        0.19760    0.48170    0.78250    1.000
    C14      C        0.15460    0.66880    0.72898    1.000
    C15      C        0.80160    0.88700    0.70744    1.000
    H6       H        0.80570    0.81040    0.72030    1.000
    C16      C        0.73710    0.08280    0.70405    1.000
    H7       H        0.69670    0.14080    0.71570    1.000
    C17      C        0.48700    0.78320    0.83109    1.000
    C18      C        0.16060    0.50390    0.46752    1.000
    C19      C        0.13740    0.38470    0.46637    1.000
    H8       H        0.14290    0.34230    0.43850    1.000
    C20      C        0.69580    0.95320    0.76839    1.000
    C21      C        0.09850    0.38950    0.54062    1.000
    H9       H        0.07600    0.35010    0.56610    1.000
    Mn4      Mn       0.54101    0.04889    0.83137    1.000
    Mn5      Mn       0.35340    0.32855    0.86450    1.000
    Mn6      Mn       0.78528    0.29780    0.64312    1.000
    O13      O        0.51460    0.36420    0.87012    1.000
    O14      O        0.94040    0.25130    0.63721    1.000
    O15      O        0.32630    0.01990    0.11439    1.000
    O16      O        0.44930    0.02410    0.88428    1.000
    O17      O        0.60230    0.22040    0.84266    1.000
    O18      O        0.85460    0.53580    0.71899    1.000
    O19      O        0.26970    0.16600    0.06715    1.000
    O20      O        0.01600    0.37630    0.69215    1.000
    O21      O        0.41940    0.10010    0.77572    1.000
    O22      O        0.33660    0.25890    0.79532    1.000
    O23      O        0.35860    0.17430    0.90568    1.000
    O24      O        0.78990    0.35440    0.71279    1.000
    N4       N        0.71660    0.60950    0.83252    1.000
    N5       N        0.17450    0.01120    0.67270    1.000
    N6       N        0.39180    0.82710    0.99809    1.000
    C22      C        0.64890    0.41460    0.82983    1.000
    C23      C        0.10170    0.20110    0.68197    1.000
    C24      C        0.25820    0.14500    0.73120    1.000
    C25      C        0.38060    0.00790    0.95458    1.000
    C26      C        0.18120    0.22640    0.71806    1.000
    H10      H        0.18330    0.29940    0.73390    1.000
    C27      C        0.58200    0.32580    0.84934    1.000
    C28      C        0.65850    0.52640    0.84788    1.000
    H11      H        0.62200    0.54590    0.87250    1.000
    C29      C        0.34720    0.06540    0.99147    1.000
    H12      H        0.32980    0.14600    0.98880    1.000
    C30      C        0.39780    0.07500    0.91097    1.000
    C31      C        0.10200    0.09260    0.65944    1.000
    H13      H        0.04870    0.07570    0.63370    1.000
    C32      C        0.30990    0.06660    0.07371    1.000
    C33      C        0.75400    0.47360    0.77442    1.000
    C34      C        0.25070    0.03850    0.70793    1.000
    H14      H        0.30240    0.98170    0.71750    1.000
    C35      C        0.34540    0.16880    0.77102    1.000
    C36      C        0.69840    0.38700    0.79256    1.000
    H15      H        0.69430    0.31040    0.77970    1.000
    C37      C        0.76290    0.58280    0.79595    1.000
    H16      H        0.80330    0.64080    0.78430    1.000
    C38      C        0.01300    0.28320    0.66891    1.000
    C39      C        0.33940    0.00390    0.03248    1.000
    C40      C        0.36260    0.88470    0.03363    1.000
    H17      H        0.35710    0.84230    0.06150    1.000
    C41      C        0.80420    0.45320    0.73161    1.000
    C42      C        0.40150    0.88950    0.95938    1.000
    H18      H        0.42400    0.85010    0.93390    1.000
    Mn7      Mn       0.04101    0.45111    0.33137    1.000
    Mn8      Mn       0.85340    0.17145    0.36450    1.000
    Mn9      Mn       0.28528    0.20220    0.14312    1.000
    O25      O        0.01460    0.13580    0.37012    1.000
    O26      O        0.44040    0.24870    0.13721    1.000
    O27      O        0.82630    0.48010    0.61439    1.000
    O28      O        0.94930    0.47590    0.38428    1.000
    O29      O        0.10230    0.27960    0.34266    1.000
    O30      O        0.35460    0.96420    0.21899    1.000
    O31      O        0.76970    0.33400    0.56715    1.000
    O32      O        0.51600    0.12370    0.19215    1.000
    O33      O        0.91940    0.39990    0.27572    1.000
    O34      O        0.83660    0.24110    0.29532    1.000
    O35      O        0.85860    0.32570    0.40568    1.000
    O36      O        0.28990    0.14560    0.21279    1.000
    N7       N        0.21660    0.89050    0.33252    1.000
    N8       N        0.67450    0.48880    0.17270    1.000
    N9       N        0.89180    0.67290    0.49809    1.000
    C43      C        0.14890    0.08540    0.32983    1.000
    C44      C        0.60170    0.29890    0.18197    1.000
    C45      C        0.75820    0.35500    0.23120    1.000
    C46      C        0.88060    0.49210    0.45458    1.000
    C47      C        0.68120    0.27360    0.21806    1.000
    H19      H        0.68330    0.20060    0.23390    1.000
    C48      C        0.08200    0.17420    0.34934    1.000
    C49      C        0.15850    0.97360    0.34788    1.000
    H20      H        0.12200    0.95410    0.37250    1.000
    C50      C        0.84720    0.43460    0.49147    1.000
    H21      H        0.82980    0.35400    0.48880    1.000
    C51      C        0.89780    0.42500    0.41097    1.000
    C52      C        0.60200    0.40740    0.15944    1.000
    H22      H        0.54870    0.42430    0.13370    1.000
    C53      C        0.80990    0.43340    0.57371    1.000
    C54      C        0.25400    0.02640    0.27442    1.000
    C55      C        0.75070    0.46150    0.20793    1.000
    H23      H        0.80240    0.51830    0.21750    1.000
    C56      C        0.84540    0.33120    0.27102    1.000
    C57      C        0.19840    0.11300    0.29256    1.000
    H24      H        0.19430    0.18960    0.27970    1.000
    C58      C        0.26290    0.91720    0.29595    1.000
    H25      H        0.30330    0.85920    0.28430    1.000
    C59      C        0.51300    0.21680    0.16891    1.000
    C60      C        0.83940    0.49610    0.53248    1.000
    C61      C        0.86260    0.61530    0.53363    1.000
    H26      H        0.85710    0.65770    0.56150    1.000
    C62      C        0.30420    0.04680    0.23161    1.000
    C63      C        0.90150    0.61050    0.45938    1.000
    H27      H        0.92400    0.64990    0.43390    1.000
    Mn10     Mn       0.45899    0.95111    0.16863    1.000
    Mn11     Mn       0.64660    0.67145    0.13550    1.000
    Mn12     Mn       0.21472    0.70220    0.35688    1.000
    O37      O        0.48540    0.63580    0.12988    1.000
    O38      O        0.05960    0.74870    0.36279    1.000
    O39      O        0.67370    0.98010    0.88561    1.000
    O40      O        0.55070    0.97590    0.11572    1.000
    O41      O        0.39770    0.77960    0.15734    1.000
    O42      O        0.14540    0.46420    0.28101    1.000
    O43      O        0.73030    0.83400    0.93285    1.000
    O44      O        0.98400    0.62370    0.30785    1.000
    O45      O        0.58060    0.89990    0.22428    1.000
    O46      O        0.66340    0.74110    0.20468    1.000
    O47      O        0.64140    0.82570    0.09432    1.000
    O48      O        0.21010    0.64560    0.28721    1.000
    N10      N        0.28340    0.39050    0.16748    1.000
    N11      N        0.82550    0.98880    0.32730    1.000
    N12      N        0.60820    0.17290    0.00191    1.000
    C64      C        0.35110    0.58540    0.17017    1.000
    C65      C        0.89830    0.79890    0.31803    1.000
    C66      C        0.74180    0.85500    0.26880    1.000
    C67      C        0.61940    0.99210    0.04542    1.000
    C68      C        0.81880    0.77360    0.28194    1.000
    H28      H        0.81670    0.70060    0.26610    1.000
    C69      C        0.41800    0.67420    0.15066    1.000
    C70      C        0.34150    0.47360    0.15212    1.000
    H29      H        0.37800    0.45410    0.12750    1.000
    C71      C        0.65280    0.93460    0.00853    1.000
    H30      H        0.67020    0.85400    0.01120    1.000
    C72      C        0.60220    0.92500    0.08903    1.000
    C73      C        0.89800    0.90740    0.34056    1.000
    H31      H        0.95130    0.92430    0.36630    1.000
    C74      C        0.69010    0.93340    0.92629    1.000
    C75      C        0.24600    0.52640    0.22558    1.000
    C76      C        0.74930    0.96150    0.29207    1.000
    H32      H        0.69760    0.01830    0.28250    1.000
    C77      C        0.65460    0.83120    0.22898    1.000
    C78      C        0.30160    0.61300    0.20744    1.000
    H33      H        0.30570    0.68960    0.22030    1.000
    C79      C        0.23710    0.41720    0.20405    1.000
    H34      H        0.19670    0.35920    0.21570    1.000
    C80      C        0.98700    0.71680    0.33109    1.000
    C81      C        0.66060    0.99610    0.96752    1.000
    C82      C        0.63740    0.11530    0.96637    1.000
    H35      H        0.64290    0.15770    0.93850    1.000
    C83      C        0.19580    0.54680    0.26839    1.000
    C84      C        0.59850    0.11050    0.04062    1.000
    H36      H        0.57600    0.14990    0.06610    1.000
