# CIF file generated by openbabel 3.1.0, see https://openbabel.org
data_I
_chemical_name_common 'image0'
_cell_length_a 26.4064
_cell_length_b 14.4412
_cell_length_c 25.3777
_cell_angle_alpha 90
_cell_angle_beta 113.333
_cell_angle_gamma 90
_space_group_name_H-M_alt 'P 1'
_space_group_name_Hall 'P 1'
loop_
    _symmetry_equiv_pos_as_xyz
    x,y,z
loop_
    _atom_site_label
    _atom_site_type_symbol
    _atom_site_fract_x
    _atom_site_fract_y
    _atom_site_fract_z
    _atom_site_occupancy
    Eu1      Eu       0.33476    0.58432    0.30170    1.000
    Eu2      Eu       0.28645    0.36395    0.18990    1.000
    O1       O        0.24410    0.63270    0.28320    1.000
    O2       O        0.37030    0.43600    0.26610    1.000
    O3       O        0.23590    0.48010    0.11820    1.000
    O4       O        0.41460    0.56610    0.27380    1.000
    O5       O        0.28230    0.54770    0.20110    1.000
    C1       C        0.45710    0.33300    0.25550    1.000
    H1       H        0.42810    0.30030    0.25880    1.000
    C2       C        0.45740    0.42880    0.25610    1.000
    C3       C        0.24990    0.55220    0.14780    1.000
    C4       C        0.41190    0.48020    0.26580    1.000
    C5       C        0.16360    0.31750    0.20550    1.000
    O6       O        0.34020    0.64460    0.39280    1.000
    O7       O        0.18530    0.95810    0.14620    1.000
    O8       O        0.34430    0.61590    0.64150    1.000
    O9       O        0.17260    0.71960    0.27860    1.000
    O10      O        0.41320    0.56730    0.39640    1.000
    O11      O        0.24030    0.27150    0.10560    1.000
    H2       H        0.26090    0.26370    0.08880    1.000
    O12      O        0.19580    0.33050    0.18070    1.000
    C6       C        0.20050    0.80200    0.12910    1.000
    O13      O        0.32500    0.72630    0.57550    1.000
    C7       C        0.15730    0.55830    0.25970    1.000
    C8       C        0.19420    0.64330    0.27550    1.000
    C9       C        0.39720    0.57790    0.48280    1.000
    C10      C        0.37050    0.62420    0.51250    1.000
    H3       H        0.34620    0.67190    0.49440    1.000
    C11      C        0.17350    0.48180    0.23860    1.000
    H4       H        0.20550    0.48430    0.23160    1.000
    C12      C        0.34750    0.65230    0.59710    1.000
    C13      C        0.22530    0.71860    0.15450    1.000
    H5       H        0.24160    0.71390    0.19430    1.000
    C14      C        0.38390    0.59760    0.42090    1.000
    C15      C        0.10900    0.55710    0.26890    1.000
    H6       H        0.09680    0.61020    0.28100    1.000
    C16      C        0.14290    0.40020    0.22740    1.000
    C17      C        0.22590    0.64410    0.12140    1.000
    C18      C        0.37920    0.60100    0.56820    1.000
    C19      C        0.09650    0.39590    0.23950    1.000
    H7       H        0.07670    0.34090    0.23430    1.000
    C20      C        0.07930    0.47550    0.25970    1.000
    H8       H        0.04750    0.47340    0.26710    1.000
    C21      C        0.43460    0.50810    0.51030    1.000
    H9       H        0.45250    0.47650    0.49080    1.000
    C22      C        0.41650    0.53030    0.59530    1.000
    H10      H        0.42230    0.51280    0.63250    1.000
    C23      C        0.17660    0.80920    0.07080    1.000
    H11      H        0.15950    0.86410    0.05370    1.000
    C24      C        0.44520    0.48550    0.56660    1.000
    H12      H        0.47130    0.44050    0.58540    1.000
    C25      C        0.20290    0.65120    0.06230    1.000
    H13      H        0.20410    0.60140    0.03960    1.000
    C26      C        0.17770    0.73430    0.03700    1.000
    H14      H        0.16170    0.73940    0.99730    1.000
    O14      O        0.21760    0.86590    0.22040    1.000
    C27      C        0.20160    0.88180    0.16790    1.000
    O15      O        0.14740    0.23790    0.21340    1.000
    Eu3      Eu       0.83476    0.08432    0.30170    1.000
    Eu4      Eu       0.78645    0.86395    0.18990    1.000
    O16      O        0.74410    0.13270    0.28320    1.000
    O17      O        0.87030    0.93600    0.26610    1.000
    O18      O        0.73590    0.98010    0.11820    1.000
    O19      O        0.91460    0.06610    0.27380    1.000
    O20      O        0.78230    0.04770    0.20110    1.000
    C28      C        0.95710    0.83300    0.25550    1.000
    H15      H        0.92810    0.80030    0.25880    1.000
    C29      C        0.95740    0.92880    0.25610    1.000
    C30      C        0.74990    0.05220    0.14780    1.000
    C31      C        0.91190    0.98020    0.26580    1.000
    C32      C        0.66360    0.81750    0.20550    1.000
    O21      O        0.84020    0.14460    0.39280    1.000
    O22      O        0.68530    0.45810    0.14620    1.000
    O23      O        0.84430    0.11590    0.64150    1.000
    O24      O        0.67260    0.21960    0.27860    1.000
    O25      O        0.91320    0.06730    0.39640    1.000
    O26      O        0.74030    0.77150    0.10560    1.000
    H16      H        0.76090    0.76370    0.08880    1.000
    O27      O        0.69580    0.83050    0.18070    1.000
    C33      C        0.70050    0.30200    0.12910    1.000
    O28      O        0.82500    0.22630    0.57550    1.000
    C34      C        0.65730    0.05830    0.25970    1.000
    C35      C        0.69420    0.14330    0.27550    1.000
    C36      C        0.89720    0.07790    0.48280    1.000
    C37      C        0.87050    0.12420    0.51250    1.000
    H17      H        0.84620    0.17190    0.49440    1.000
    C38      C        0.67350    0.98180    0.23860    1.000
    H18      H        0.70550    0.98430    0.23160    1.000
    C39      C        0.84750    0.15230    0.59710    1.000
    C40      C        0.72530    0.21860    0.15450    1.000
    H19      H        0.74160    0.21390    0.19430    1.000
    C41      C        0.88390    0.09760    0.42090    1.000
    C42      C        0.60900    0.05710    0.26890    1.000
    H20      H        0.59680    0.11020    0.28100    1.000
    C43      C        0.64290    0.90020    0.22740    1.000
    C44      C        0.72590    0.14410    0.12140    1.000
    C45      C        0.87920    0.10100    0.56820    1.000
    C46      C        0.59650    0.89590    0.23950    1.000
    H21      H        0.57670    0.84090    0.23430    1.000
    C47      C        0.57930    0.97550    0.25970    1.000
    H22      H        0.54750    0.97340    0.26710    1.000
    C48      C        0.93460    0.00810    0.51030    1.000
    H23      H        0.95250    0.97650    0.49080    1.000
    C49      C        0.91650    0.03030    0.59530    1.000
    H24      H        0.92230    0.01280    0.63250    1.000
    C50      C        0.67660    0.30920    0.07080    1.000
    H25      H        0.65950    0.36410    0.05370    1.000
    C51      C        0.94520    0.98550    0.56660    1.000
    H26      H        0.97130    0.94050    0.58540    1.000
    C52      C        0.70290    0.15120    0.06230    1.000
    H27      H        0.70410    0.10140    0.03960    1.000
    C53      C        0.67770    0.23430    0.03700    1.000
    H28      H        0.66170    0.23940    0.99730    1.000
    O29      O        0.71760    0.36590    0.22040    1.000
    C54      C        0.70160    0.38180    0.16790    1.000
    O30      O        0.64740    0.73790    0.21340    1.000
    Eu5      Eu       0.66524    0.58432    0.19830    1.000
    Eu6      Eu       0.71355    0.36395    0.31010    1.000
    O31      O        0.75590    0.63270    0.21680    1.000
    O32      O        0.62970    0.43600    0.23390    1.000
    O33      O        0.76410    0.48010    0.38180    1.000
    O34      O        0.58540    0.56610    0.22620    1.000
    O35      O        0.71770    0.54770    0.29890    1.000
    C55      C        0.54290    0.33300    0.24450    1.000
    H29      H        0.57190    0.30030    0.24120    1.000
    C56      C        0.54260    0.42880    0.24390    1.000
    C57      C        0.75010    0.55220    0.35220    1.000
    C58      C        0.58810    0.48020    0.23420    1.000
    C59      C        0.83640    0.31750    0.29450    1.000
    O36      O        0.65980    0.64460    0.10720    1.000
    O37      O        0.81470    0.95810    0.35380    1.000
    O38      O        0.65570    0.61590    0.85850    1.000
    O39      O        0.82740    0.71960    0.22140    1.000
    O40      O        0.58680    0.56730    0.10360    1.000
    O41      O        0.75970    0.27150    0.39440    1.000
    H30      H        0.73910    0.26370    0.41120    1.000
    O42      O        0.80420    0.33050    0.31930    1.000
    C60      C        0.79950    0.80200    0.37090    1.000
    O43      O        0.67500    0.72630    0.92450    1.000
    C61      C        0.84270    0.55830    0.24030    1.000
    C62      C        0.80580    0.64330    0.22450    1.000
    C63      C        0.60280    0.57790    0.01720    1.000
    C64      C        0.62950    0.62420    0.98750    1.000
    H31      H        0.65380    0.67190    0.00560    1.000
    C65      C        0.82650    0.48180    0.26140    1.000
    H32      H        0.79450    0.48430    0.26840    1.000
    C66      C        0.65250    0.65230    0.90290    1.000
    C67      C        0.77470    0.71860    0.34550    1.000
    H33      H        0.75840    0.71390    0.30570    1.000
    C68      C        0.61610    0.59760    0.07910    1.000
    C69      C        0.89100    0.55710    0.23110    1.000
    H34      H        0.90320    0.61020    0.21900    1.000
    C70      C        0.85710    0.40020    0.27260    1.000
    C71      C        0.77410    0.64410    0.37860    1.000
    C72      C        0.62080    0.60100    0.93180    1.000
    C73      C        0.90350    0.39590    0.26050    1.000
    H35      H        0.92330    0.34090    0.26570    1.000
    C74      C        0.92070    0.47550    0.24030    1.000
    H36      H        0.95250    0.47340    0.23290    1.000
    C75      C        0.56540    0.50810    0.98970    1.000
    H37      H        0.54750    0.47650    0.00920    1.000
    C76      C        0.58350    0.53030    0.90470    1.000
    H38      H        0.57770    0.51280    0.86750    1.000
    C77      C        0.82340    0.80920    0.42920    1.000
    H39      H        0.84050    0.86410    0.44630    1.000
    C78      C        0.55480    0.48550    0.93340    1.000
    H40      H        0.52870    0.44050    0.91460    1.000
    C79      C        0.79710    0.65120    0.43770    1.000
    H41      H        0.79590    0.60140    0.46040    1.000
    C80      C        0.82230    0.73430    0.46300    1.000
    H42      H        0.83830    0.73940    0.50270    1.000
    O44      O        0.78240    0.86590    0.27960    1.000
    C81      C        0.79840    0.88180    0.33210    1.000
    O45      O        0.85260    0.23790    0.28660    1.000
    Eu7      Eu       0.16524    0.08432    0.19830    1.000
    Eu8      Eu       0.21355    0.86395    0.31010    1.000
    O46      O        0.25590    0.13270    0.21680    1.000
    O47      O        0.12970    0.93600    0.23390    1.000
    O48      O        0.26410    0.98010    0.38180    1.000
    O49      O        0.08540    0.06610    0.22620    1.000
    O50      O        0.21770    0.04770    0.29890    1.000
    C82      C        0.04290    0.83300    0.24450    1.000
    H43      H        0.07190    0.80030    0.24120    1.000
    C83      C        0.04260    0.92880    0.24390    1.000
    C84      C        0.25010    0.05220    0.35220    1.000
    C85      C        0.08810    0.98020    0.23420    1.000
    C86      C        0.33640    0.81750    0.29450    1.000
    O51      O        0.15980    0.14460    0.10720    1.000
    O52      O        0.31470    0.45810    0.35380    1.000
    O53      O        0.15570    0.11590    0.85850    1.000
    O54      O        0.32740    0.21960    0.22140    1.000
    O55      O        0.08680    0.06730    0.10360    1.000
    O56      O        0.25970    0.77150    0.39440    1.000
    H44      H        0.23910    0.76370    0.41120    1.000
    O57      O        0.30420    0.83050    0.31930    1.000
    C87      C        0.29950    0.30200    0.37090    1.000
    O58      O        0.17500    0.22630    0.92450    1.000
    C88      C        0.34270    0.05830    0.24030    1.000
    C89      C        0.30580    0.14330    0.22450    1.000
    C90      C        0.10280    0.07790    0.01720    1.000
    C91      C        0.12950    0.12420    0.98750    1.000
    H45      H        0.15380    0.17190    0.00560    1.000
    C92      C        0.32650    0.98180    0.26140    1.000
    H46      H        0.29450    0.98430    0.26840    1.000
    C93      C        0.15250    0.15230    0.90290    1.000
    C94      C        0.27470    0.21860    0.34550    1.000
    H47      H        0.25840    0.21390    0.30570    1.000
    C95      C        0.11610    0.09760    0.07910    1.000
    C96      C        0.39100    0.05710    0.23110    1.000
    H48      H        0.40320    0.11020    0.21900    1.000
    C97      C        0.35710    0.90020    0.27260    1.000
    C98      C        0.27410    0.14410    0.37860    1.000
    C99      C        0.12080    0.10100    0.93180    1.000
    C100     C        0.40350    0.89590    0.26050    1.000
    H49      H        0.42330    0.84090    0.26570    1.000
    C101     C        0.42070    0.97550    0.24030    1.000
    H50      H        0.45250    0.97340    0.23290    1.000
    C102     C        0.06540    0.00810    0.98970    1.000
    H51      H        0.04750    0.97650    0.00920    1.000
    C103     C        0.08350    0.03030    0.90470    1.000
    H52      H        0.07770    0.01280    0.86750    1.000
    C104     C        0.32340    0.30920    0.42920    1.000
    H53      H        0.34050    0.36410    0.44630    1.000
    C105     C        0.05480    0.98550    0.93340    1.000
    H54      H        0.02870    0.94050    0.91460    1.000
    C106     C        0.29710    0.15120    0.43770    1.000
    H55      H        0.29590    0.10140    0.46040    1.000
    C107     C        0.32230    0.23430    0.46300    1.000
    H56      H        0.33830    0.23940    0.50270    1.000
    O59      O        0.28240    0.36590    0.27960    1.000
    C108     C        0.29840    0.38180    0.33210    1.000
    O60      O        0.35260    0.73790    0.28660    1.000
    Eu9      Eu       0.66524    0.41568    0.69830    1.000
    Eu10     Eu       0.71355    0.63605    0.81010    1.000
    O61      O        0.75590    0.36730    0.71680    1.000
    O62      O        0.62970    0.56400    0.73390    1.000
    O63      O        0.76410    0.51990    0.88180    1.000
    O64      O        0.58540    0.43390    0.72620    1.000
    O65      O        0.71770    0.45230    0.79890    1.000
    C109     C        0.54290    0.66700    0.74450    1.000
    H57      H        0.57190    0.69970    0.74120    1.000
    C110     C        0.54260    0.57120    0.74390    1.000
    C111     C        0.75010    0.44780    0.85220    1.000
    C112     C        0.58810    0.51980    0.73420    1.000
    C113     C        0.83640    0.68250    0.79450    1.000
    O66      O        0.65980    0.35540    0.60720    1.000
    O67      O        0.81470    0.04190    0.85380    1.000
    O68      O        0.65570    0.38410    0.35850    1.000
    O69      O        0.82740    0.28040    0.72140    1.000
    O70      O        0.58680    0.43270    0.60360    1.000
    O71      O        0.75970    0.72850    0.89440    1.000
    H58      H        0.73910    0.73630    0.91120    1.000
    O72      O        0.80420    0.66950    0.81930    1.000
    C114     C        0.79950    0.19800    0.87090    1.000
    O73      O        0.67500    0.27370    0.42450    1.000
    C115     C        0.84270    0.44170    0.74030    1.000
    C116     C        0.80580    0.35670    0.72450    1.000
    C117     C        0.60280    0.42210    0.51720    1.000
    C118     C        0.62950    0.37580    0.48750    1.000
    H59      H        0.65380    0.32810    0.50560    1.000
    C119     C        0.82650    0.51820    0.76140    1.000
    H60      H        0.79450    0.51570    0.76840    1.000
    C120     C        0.65250    0.34770    0.40290    1.000
    C121     C        0.77470    0.28140    0.84550    1.000
    H61      H        0.75840    0.28610    0.80570    1.000
    C122     C        0.61610    0.40240    0.57910    1.000
    C123     C        0.89100    0.44290    0.73110    1.000
    H62      H        0.90320    0.38980    0.71900    1.000
    C124     C        0.85710    0.59980    0.77260    1.000
    C125     C        0.77410    0.35590    0.87860    1.000
    C126     C        0.62080    0.39900    0.43180    1.000
    C127     C        0.90350    0.60410    0.76050    1.000
    H63      H        0.92330    0.65910    0.76570    1.000
    C128     C        0.92070    0.52450    0.74030    1.000
    H64      H        0.95250    0.52660    0.73290    1.000
    C129     C        0.56540    0.49190    0.48970    1.000
    H65      H        0.54750    0.52350    0.50920    1.000
    C130     C        0.58350    0.46970    0.40470    1.000
    H66      H        0.57770    0.48720    0.36750    1.000
    C131     C        0.82340    0.19080    0.92920    1.000
    H67      H        0.84050    0.13590    0.94630    1.000
    C132     C        0.55480    0.51450    0.43340    1.000
    H68      H        0.52870    0.55950    0.41460    1.000
    C133     C        0.79710    0.34880    0.93770    1.000
    H69      H        0.79590    0.39860    0.96040    1.000
    C134     C        0.82230    0.26570    0.96300    1.000
    H70      H        0.83830    0.26060    0.00270    1.000
    O74      O        0.78240    0.13410    0.77960    1.000
    C135     C        0.79840    0.11820    0.83210    1.000
    O75      O        0.85260    0.76210    0.78660    1.000
    Eu11     Eu       0.16524    0.91568    0.69830    1.000
    Eu12     Eu       0.21355    0.13605    0.81010    1.000
    O76      O        0.25590    0.86730    0.71680    1.000
    O77      O        0.12970    0.06400    0.73390    1.000
    O78      O        0.26410    0.01990    0.88180    1.000
    O79      O        0.08540    0.93390    0.72620    1.000
    O80      O        0.21770    0.95230    0.79890    1.000
    C136     C        0.04290    0.16700    0.74450    1.000
    H71      H        0.07190    0.19970    0.74120    1.000
    C137     C        0.04260    0.07120    0.74390    1.000
    C138     C        0.25010    0.94780    0.85220    1.000
    C139     C        0.08810    0.01980    0.73420    1.000
    C140     C        0.33640    0.18250    0.79450    1.000
    O81      O        0.15980    0.85540    0.60720    1.000
    O82      O        0.31470    0.54190    0.85380    1.000
    O83      O        0.15570    0.88410    0.35850    1.000
    O84      O        0.32740    0.78040    0.72140    1.000
    O85      O        0.08680    0.93270    0.60360    1.000
    O86      O        0.25970    0.22850    0.89440    1.000
    H72      H        0.23910    0.23630    0.91120    1.000
    O87      O        0.30420    0.16950    0.81930    1.000
    C141     C        0.29950    0.69800    0.87090    1.000
    O88      O        0.17500    0.77370    0.42450    1.000
    C142     C        0.34270    0.94170    0.74030    1.000
    C143     C        0.30580    0.85670    0.72450    1.000
    C144     C        0.10280    0.92210    0.51720    1.000
    C145     C        0.12950    0.87580    0.48750    1.000
    H73      H        0.15380    0.82810    0.50560    1.000
    C146     C        0.32650    0.01820    0.76140    1.000
    H74      H        0.29450    0.01570    0.76840    1.000
    C147     C        0.15250    0.84770    0.40290    1.000
    C148     C        0.27470    0.78140    0.84550    1.000
    H75      H        0.25840    0.78610    0.80570    1.000
    C149     C        0.11610    0.90240    0.57910    1.000
    C150     C        0.39100    0.94290    0.73110    1.000
    H76      H        0.40320    0.88980    0.71900    1.000
    C151     C        0.35710    0.09980    0.77260    1.000
    C152     C        0.27410    0.85590    0.87860    1.000
    C153     C        0.12080    0.89900    0.43180    1.000
    C154     C        0.40350    0.10410    0.76050    1.000
    H77      H        0.42330    0.15910    0.76570    1.000
    C155     C        0.42070    0.02450    0.74030    1.000
    H78      H        0.45250    0.02660    0.73290    1.000
    C156     C        0.06540    0.99190    0.48970    1.000
    H79      H        0.04750    0.02350    0.50920    1.000
    C157     C        0.08350    0.96970    0.40470    1.000
    H80      H        0.07770    0.98720    0.36750    1.000
    C158     C        0.32340    0.69080    0.92920    1.000
    H81      H        0.34050    0.63590    0.94630    1.000
    C159     C        0.05480    0.01450    0.43340    1.000
    H82      H        0.02870    0.05950    0.41460    1.000
    C160     C        0.29710    0.84880    0.93770    1.000
    H83      H        0.29590    0.89860    0.96040    1.000
    C161     C        0.32230    0.76570    0.96300    1.000
    H84      H        0.33830    0.76060    0.00270    1.000
    O89      O        0.28240    0.63410    0.77960    1.000
    C162     C        0.29840    0.61820    0.83210    1.000
    O90      O        0.35260    0.26210    0.78660    1.000
    Eu13     Eu       0.33476    0.41568    0.80170    1.000
    Eu14     Eu       0.28645    0.63605    0.68990    1.000
    O91      O        0.24410    0.36730    0.78320    1.000
    O92      O        0.37030    0.56400    0.76610    1.000
    O93      O        0.23590    0.51990    0.61820    1.000
    O94      O        0.41460    0.43390    0.77380    1.000
    O95      O        0.28230    0.45230    0.70110    1.000
    C163     C        0.45710    0.66700    0.75550    1.000
    H85      H        0.42810    0.69970    0.75880    1.000
    C164     C        0.45740    0.57120    0.75610    1.000
    C165     C        0.24990    0.44780    0.64780    1.000
    C166     C        0.41190    0.51980    0.76580    1.000
    C167     C        0.16360    0.68250    0.70550    1.000
    O96      O        0.34020    0.35540    0.89280    1.000
    O97      O        0.18530    0.04190    0.64620    1.000
    O98      O        0.34430    0.38410    0.14150    1.000
    O99      O        0.17260    0.28040    0.77860    1.000
    O100     O        0.41320    0.43270    0.89640    1.000
    O101     O        0.24030    0.72850    0.60560    1.000
    H86      H        0.26090    0.73630    0.58880    1.000
    O102     O        0.19580    0.66950    0.68070    1.000
    C168     C        0.20050    0.19800    0.62910    1.000
    O103     O        0.32500    0.27370    0.07550    1.000
    C169     C        0.15730    0.44170    0.75970    1.000
    C170     C        0.19420    0.35670    0.77550    1.000
    C171     C        0.39720    0.42210    0.98280    1.000
    C172     C        0.37050    0.37580    0.01250    1.000
    H87      H        0.34620    0.32810    0.99440    1.000
    C173     C        0.17350    0.51820    0.73860    1.000
    H88      H        0.20550    0.51570    0.73160    1.000
    C174     C        0.34750    0.34770    0.09710    1.000
    C175     C        0.22530    0.28140    0.65450    1.000
    H89      H        0.24160    0.28610    0.69430    1.000
    C176     C        0.38390    0.40240    0.92090    1.000
    C177     C        0.10900    0.44290    0.76890    1.000
    H90      H        0.09680    0.38980    0.78100    1.000
    C178     C        0.14290    0.59980    0.72740    1.000
    C179     C        0.22590    0.35590    0.62140    1.000
    C180     C        0.37920    0.39900    0.06820    1.000
    C181     C        0.09650    0.60410    0.73950    1.000
    H91      H        0.07670    0.65910    0.73430    1.000
    C182     C        0.07930    0.52450    0.75970    1.000
    H92      H        0.04750    0.52660    0.76710    1.000
    C183     C        0.43460    0.49190    0.01030    1.000
    H93      H        0.45250    0.52350    0.99080    1.000
    C184     C        0.41650    0.46970    0.09530    1.000
    H94      H        0.42230    0.48720    0.13250    1.000
    C185     C        0.17660    0.19080    0.57080    1.000
    H95      H        0.15950    0.13590    0.55370    1.000
    C186     C        0.44520    0.51450    0.06660    1.000
    H96      H        0.47130    0.55950    0.08540    1.000
    C187     C        0.20290    0.34880    0.56230    1.000
    H97      H        0.20410    0.39860    0.53960    1.000
    C188     C        0.17770    0.26570    0.53700    1.000
    H98      H        0.16170    0.26060    0.49730    1.000
    O104     O        0.21760    0.13410    0.72040    1.000
    C189     C        0.20160    0.11820    0.66790    1.000
    O105     O        0.14740    0.76210    0.71340    1.000
    Eu15     Eu       0.83476    0.91568    0.80170    1.000
    Eu16     Eu       0.78645    0.13605    0.68990    1.000
    O106     O        0.74410    0.86730    0.78320    1.000
    O107     O        0.87030    0.06400    0.76610    1.000
    O108     O        0.73590    0.01990    0.61820    1.000
    O109     O        0.91460    0.93390    0.77380    1.000
    O110     O        0.78230    0.95230    0.70110    1.000
    C190     C        0.95710    0.16700    0.75550    1.000
    H99      H        0.92810    0.19970    0.75880    1.000
    C191     C        0.95740    0.07120    0.75610    1.000
    C192     C        0.74990    0.94780    0.64780    1.000
    C193     C        0.91190    0.01980    0.76580    1.000
    C194     C        0.66360    0.18250    0.70550    1.000
    O111     O        0.84020    0.85540    0.89280    1.000
    O112     O        0.68530    0.54190    0.64620    1.000
    O113     O        0.84430    0.88410    0.14150    1.000
    O114     O        0.67260    0.78040    0.77860    1.000
    O115     O        0.91320    0.93270    0.89640    1.000
    O116     O        0.74030    0.22850    0.60560    1.000
    H100     H        0.76090    0.23630    0.58880    1.000
    O117     O        0.69580    0.16950    0.68070    1.000
    C195     C        0.70050    0.69800    0.62910    1.000
    O118     O        0.82500    0.77370    0.07550    1.000
    C196     C        0.65730    0.94170    0.75970    1.000
    C197     C        0.69420    0.85670    0.77550    1.000
    C198     C        0.89720    0.92210    0.98280    1.000
    C199     C        0.87050    0.87580    0.01250    1.000
    H101     H        0.84620    0.82810    0.99440    1.000
    C200     C        0.67350    0.01820    0.73860    1.000
    H102     H        0.70550    0.01570    0.73160    1.000
    C201     C        0.84750    0.84770    0.09710    1.000
    C202     C        0.72530    0.78140    0.65450    1.000
    H103     H        0.74160    0.78610    0.69430    1.000
    C203     C        0.88390    0.90240    0.92090    1.000
    C204     C        0.60900    0.94290    0.76890    1.000
    H104     H        0.59680    0.88980    0.78100    1.000
    C205     C        0.64290    0.09980    0.72740    1.000
    C206     C        0.72590    0.85590    0.62140    1.000
    C207     C        0.87920    0.89900    0.06820    1.000
    C208     C        0.59650    0.10410    0.73950    1.000
    H105     H        0.57670    0.15910    0.73430    1.000
    C209     C        0.57930    0.02450    0.75970    1.000
    H106     H        0.54750    0.02660    0.76710    1.000
    C210     C        0.93460    0.99190    0.01030    1.000
    H107     H        0.95250    0.02350    0.99080    1.000
    C211     C        0.91650    0.96970    0.09530    1.000
    H108     H        0.92230    0.98720    0.13250    1.000
    C212     C        0.67660    0.69080    0.57080    1.000
    H109     H        0.65950    0.63590    0.55370    1.000
    C213     C        0.94520    0.01450    0.06660    1.000
    H110     H        0.97130    0.05950    0.08540    1.000
    C214     C        0.70290    0.84880    0.56230    1.000
    H111     H        0.70410    0.89860    0.53960    1.000
    C215     C        0.67770    0.76570    0.53700    1.000
    H112     H        0.66170    0.76060    0.49730    1.000
    O119     O        0.71760    0.63410    0.72040    1.000
    C216     C        0.70160    0.61820    0.66790    1.000
    O120     O        0.64740    0.26210    0.71340    1.000
    C217     C        0.50000    0.47740    0.25000    1.000
    H113     H        0.50000    0.54180    0.25000    1.000
    C218     C        0.50000    0.28720    0.25000    1.000
    H114     H        0.50000    0.22280    0.25000    1.000
    C219     C        0.00000    0.97740    0.25000    1.000
    H115     H        0.00000    0.04180    0.25000    1.000
    C220     C        0.00000    0.78720    0.25000    1.000
    H116     H        0.00000    0.72280    0.25000    1.000
    C221     C        0.50000    0.52260    0.75000    1.000
    H117     H        0.50000    0.45820    0.75000    1.000
    C222     C        0.50000    0.71280    0.75000    1.000
    H118     H        0.50000    0.77720    0.75000    1.000
    C223     C        0.00000    0.02260    0.75000    1.000
    H119     H        0.00000    0.95820    0.75000    1.000
    C224     C        0.00000    0.21280    0.75000    1.000
    H120     H        0.00000    0.27720    0.75000    1.000
