# CIF file generated by openbabel 3.1.0, see https://openbabel.org
data_I
_chemical_name_common 'image0'
_cell_length_a 7.0187
_cell_length_b 7.0187
_cell_length_c 7.5098
_cell_angle_alpha 90
_cell_angle_beta 90
_cell_angle_gamma 90
_space_group_name_H-M_alt 'P 1'
_space_group_name_Hall 'P 1'
loop_
    _symmetry_equiv_pos_as_xyz
    x,y,z
loop_
    _atom_site_label
    _atom_site_type_symbol
    _atom_site_fract_x
    _atom_site_fract_y
    _atom_site_fract_z
    _atom_site_occupancy
    C1       C        0.90081    0.45410    0.64790    1.000
    H1       H        0.81560    0.41730    0.76670    1.000
    C2       C        0.09919    0.54590    0.64790    1.000
    H2       H        0.18440    0.58270    0.76670    1.000
    C3       C        0.54590    0.90081    0.64790    1.000
    H3       H        0.58270    0.81560    0.76670    1.000
    C4       C        0.45410    0.09919    0.64790    1.000
    H4       H        0.41730    0.18440    0.76670    1.000
    C5       C        0.09919    0.45410    0.35210    1.000
    H5       H        0.18440    0.41730    0.23330    1.000
    C6       C        0.90081    0.54590    0.35210    1.000
    H6       H        0.81560    0.58270    0.23330    1.000
    C7       C        0.45410    0.90081    0.35210    1.000
    H7       H        0.41730    0.81560    0.23330    1.000
    C8       C        0.54590    0.09919    0.35210    1.000
    H8       H        0.58270    0.18440    0.23330    1.000
    C9       C        0.09919    0.54590    0.35210    1.000
    H9       H        0.18440    0.58270    0.23330    1.000
    C10      C        0.90081    0.45410    0.35210    1.000
    H10      H        0.81560    0.41730    0.23330    1.000
    C11      C        0.45410    0.09919    0.35210    1.000
    H11      H        0.41730    0.18440    0.23330    1.000
    C12      C        0.54590    0.90081    0.35210    1.000
    H12      H        0.58270    0.81560    0.23330    1.000
    C13      C        0.90081    0.54590    0.64790    1.000
    H13      H        0.81560    0.58270    0.76670    1.000
    C14      C        0.09919    0.45410    0.64790    1.000
    H14      H        0.18440    0.41730    0.76670    1.000
    C15      C        0.54590    0.09919    0.64790    1.000
    H15      H        0.58270    0.18440    0.76670    1.000
    C16      C        0.45410    0.90081    0.64790    1.000
    H16      H        0.41730    0.81560    0.76670    1.000
    Ni1      Ni       0.50000    0.50000    0.50000    1.000
    Si1      Si       0.50000    0.50000    0.00000    1.000
    F1       F        0.50000    0.50000    0.76340    1.000
    F2       F        0.50000    0.50000    0.23660    1.000
    F3       F        0.66400    0.66400    0.00000    1.000
    F4       F        0.33600    0.33600    0.00000    1.000
    F5       F        0.33600    0.66400    0.00000    1.000
    F6       F        0.66400    0.33600    0.00000    1.000
    N1       N        0.80450    0.50000    0.50000    1.000
    N2       N        0.19550    0.50000    0.50000    1.000
    N3       N        0.50000    0.80450    0.50000    1.000
    N4       N        0.50000    0.19550    0.50000    1.000
