# CIF file generated by openbabel 3.1.0, see https://openbabel.org
data_I
_chemical_name_common 'image0'
_cell_length_a 14.365
_cell_length_b 16.305
_cell_length_c 8.734
_cell_angle_alpha 90
_cell_angle_beta 90.243
_cell_angle_gamma 90
_space_group_name_H-M_alt 'P 1'
_space_group_name_Hall 'P 1'
loop_
    _symmetry_equiv_pos_as_xyz
    x,y,z
loop_
    _atom_site_label
    _atom_site_type_symbol
    _atom_site_fract_x
    _atom_site_fract_y
    _atom_site_fract_z
    _atom_site_occupancy
    Ga1      Ga       0.13650    0.03417    0.57163    1.000
    Ga2      Ga       0.04238    0.27163    0.63240    1.000
    Ga3      Ga       0.52554    0.12625    0.41042    1.000
    Ga4      Ga       0.36576    0.16159    0.81337    1.000
    P1       P        0.14798    0.15184    0.84854    1.000
    P2       P        0.64016    0.96929    0.44728    1.000
    P3       P        0.47275    0.21882    0.10989    1.000
    P4       P        0.97136    0.13241    0.41427    1.000
    O1       O        0.44790    0.16300    0.97650    1.000
    O2       O        0.53600    0.17090    0.21870    1.000
    O3       O        0.96610    0.19720    0.54090    1.000
    O4       O        0.62990    0.06280    0.43930    1.000
    O5       O        0.96360    0.32650    0.75740    1.000
    O6       O        0.24980    0.14930    0.89650    1.000
    O7       O        0.13520    0.22510    0.74280    1.000
    O8       O        0.08830    0.15870    0.99160    1.000
    O9       O        0.11840    0.07270    0.77050    1.000
    O10      O        0.38420    0.25300    0.69130    1.000
    O11      O        0.41970    0.06380    0.42210    1.000
    O12      O        0.06250    0.08560    0.42330    1.000
    O13      O        0.25990    0.05210    0.51520    1.000
    O14      O        0.39200    0.06640    0.70560    1.000
    O15      O        0.52960    0.29280    0.05660    1.000
    O16      O        0.11370    0.92190    0.56740    1.000
    Ga5      Ga       0.86350    0.53417    0.92837    1.000
    Ga6      Ga       0.95762    0.77163    0.86760    1.000
    Ga7      Ga       0.47446    0.62625    0.08958    1.000
    Ga8      Ga       0.63424    0.66159    0.68663    1.000
    P5       P        0.85202    0.65184    0.65146    1.000
    P6       P        0.35984    0.46929    0.05272    1.000
    P7       P        0.52725    0.71882    0.39011    1.000
    P8       P        0.02864    0.63241    0.08573    1.000
    O17      O        0.55210    0.66300    0.52350    1.000
    O18      O        0.46400    0.67090    0.28130    1.000
    O19      O        0.03390    0.69720    0.95910    1.000
    O20      O        0.37010    0.56280    0.06070    1.000
    O21      O        0.03640    0.82650    0.74260    1.000
    O22      O        0.75020    0.64930    0.60350    1.000
    O23      O        0.86480    0.72510    0.75720    1.000
    O24      O        0.91170    0.65870    0.50840    1.000
    O25      O        0.88160    0.57270    0.72950    1.000
    O26      O        0.61580    0.75300    0.80870    1.000
    O27      O        0.58030    0.56380    0.07790    1.000
    O28      O        0.93750    0.58560    0.07670    1.000
    O29      O        0.74010    0.55210    0.98480    1.000
    O30      O        0.60800    0.56640    0.79440    1.000
    O31      O        0.47040    0.79280    0.44340    1.000
    O32      O        0.88630    0.42190    0.93260    1.000
    Ga9      Ga       0.86350    0.96583    0.42837    1.000
    Ga10     Ga       0.95762    0.72837    0.36760    1.000
    Ga11     Ga       0.47446    0.87375    0.58958    1.000
    Ga12     Ga       0.63424    0.83841    0.18663    1.000
    P9       P        0.85202    0.84816    0.15146    1.000
    P10      P        0.35984    0.03071    0.55272    1.000
    P11      P        0.52725    0.78118    0.89011    1.000
    P12      P        0.02864    0.86759    0.58573    1.000
    O33      O        0.55210    0.83700    0.02350    1.000
    O34      O        0.46400    0.82910    0.78130    1.000
    O35      O        0.03390    0.80280    0.45910    1.000
    O36      O        0.37010    0.93720    0.56070    1.000
    O37      O        0.03640    0.67350    0.24260    1.000
    O38      O        0.75020    0.85070    0.10350    1.000
    O39      O        0.86480    0.77490    0.25720    1.000
    O40      O        0.91170    0.84130    0.00840    1.000
    O41      O        0.88160    0.92730    0.22950    1.000
    O42      O        0.61580    0.74700    0.30870    1.000
    O43      O        0.58030    0.93620    0.57790    1.000
    O44      O        0.93750    0.91440    0.57670    1.000
    O45      O        0.74010    0.94790    0.48480    1.000
    O46      O        0.60800    0.93360    0.29440    1.000
    O47      O        0.47040    0.70720    0.94340    1.000
    O48      O        0.88630    0.07810    0.43260    1.000
    Ga13     Ga       0.13650    0.46583    0.07163    1.000
    Ga14     Ga       0.04238    0.22837    0.13240    1.000
    Ga15     Ga       0.52554    0.37375    0.91042    1.000
    Ga16     Ga       0.36576    0.33841    0.31337    1.000
    P13      P        0.14798    0.34816    0.34854    1.000
    P14      P        0.64016    0.53071    0.94728    1.000
    P15      P        0.47275    0.28118    0.60989    1.000
    P16      P        0.97136    0.36759    0.91427    1.000
    O49      O        0.44790    0.33700    0.47650    1.000
    O50      O        0.53600    0.32910    0.71870    1.000
    O51      O        0.96610    0.30280    0.04090    1.000
    O52      O        0.62990    0.43720    0.93930    1.000
    O53      O        0.96360    0.17350    0.25740    1.000
    O54      O        0.24980    0.35070    0.39650    1.000
    O55      O        0.13520    0.27490    0.24280    1.000
    O56      O        0.08830    0.34130    0.49160    1.000
    O57      O        0.11840    0.42730    0.27050    1.000
    O58      O        0.38420    0.24700    0.19130    1.000
    O59      O        0.41970    0.43620    0.92210    1.000
    O60      O        0.06250    0.41440    0.92330    1.000
    O61      O        0.25990    0.44790    0.01520    1.000
    O62      O        0.39200    0.43360    0.20560    1.000
    O63      O        0.52960    0.20720    0.55660    1.000
    O64      O        0.11370    0.57810    0.06740    1.000
