# CIF file generated by openbabel 3.1.0, see https://openbabel.org
data_I
_chemical_name_common 'image0'
_cell_length_a 11.0282
_cell_length_b 11.0282
_cell_length_c 18.9717
_cell_angle_alpha 90
_cell_angle_beta 90
_cell_angle_gamma 120
_space_group_name_H-M_alt 'P 1'
_space_group_name_Hall 'P 1'
loop_
    _symmetry_equiv_pos_as_xyz
    x,y,z
loop_
    _atom_site_label
    _atom_site_type_symbol
    _atom_site_fract_x
    _atom_site_fract_y
    _atom_site_fract_z
    _atom_site_occupancy
    O1       O        0.33000    0.90400    0.67200    1.000
    O2       O        0.52260    0.88950    0.67770    1.000
    C1       C        0.44440    0.91940    0.64160    1.000
    C2       C        0.48410    0.98540    0.57280    1.000
    C3       C        0.60260    0.99940    0.53650    1.000
    C4       C        0.37710    0.98640    0.53630    1.000
    O3       O        0.09600    0.42600    0.67200    1.000
    O4       O        0.11050    0.63310    0.67770    1.000
    C5       C        0.08060    0.52500    0.64160    1.000
    C6       C        0.01460    0.49870    0.57280    1.000
    C7       C        0.00060    0.60320    0.53650    1.000
    C8       C        0.01360    0.39070    0.53630    1.000
    O5       O        0.57400    0.67000    0.67200    1.000
    O6       O        0.36690    0.47740    0.67770    1.000
    C9       C        0.47500    0.55560    0.64160    1.000
    C10      C        0.50130    0.51590    0.57280    1.000
    C11      C        0.39680    0.39740    0.53650    1.000
    C12      C        0.60930    0.62290    0.53630    1.000
    O7       O        0.33000    0.90400    0.82800    1.000
    O8       O        0.52260    0.88950    0.82230    1.000
    C13      C        0.44440    0.91940    0.85840    1.000
    C14      C        0.48410    0.98540    0.92720    1.000
    C15      C        0.60260    0.99940    0.96350    1.000
    C16      C        0.37710    0.98640    0.96370    1.000
    O9       O        0.09600    0.42600    0.82800    1.000
    O10      O        0.11050    0.63310    0.82230    1.000
    C17      C        0.08060    0.52500    0.85840    1.000
    C18      C        0.01460    0.49870    0.92720    1.000
    C19      C        0.00060    0.60320    0.96350    1.000
    C20      C        0.01360    0.39070    0.96370    1.000
    O11      O        0.57400    0.67000    0.82800    1.000
    O12      O        0.36690    0.47740    0.82230    1.000
    C21      C        0.47500    0.55560    0.85840    1.000
    C22      C        0.50130    0.51590    0.92720    1.000
    C23      C        0.39680    0.39740    0.96350    1.000
    C24      C        0.60930    0.62290    0.96370    1.000
    O13      O        0.90400    0.33000    0.32800    1.000
    O14      O        0.88950    0.52260    0.32230    1.000
    C25      C        0.91940    0.44440    0.35840    1.000
    C26      C        0.98540    0.48410    0.42720    1.000
    C27      C        0.99940    0.60260    0.46350    1.000
    C28      C        0.98640    0.37710    0.46370    1.000
    O15      O        0.42600    0.09600    0.32800    1.000
    O16      O        0.63310    0.11050    0.32230    1.000
    C29      C        0.52500    0.08060    0.35840    1.000
    C30      C        0.49870    0.01460    0.42720    1.000
    C31      C        0.60320    0.00060    0.46350    1.000
    C32      C        0.39070    0.01360    0.46370    1.000
    O17      O        0.67000    0.57400    0.32800    1.000
    O18      O        0.47740    0.36690    0.32230    1.000
    C33      C        0.55560    0.47500    0.35840    1.000
    C34      C        0.51590    0.50130    0.42720    1.000
    C35      C        0.39740    0.39680    0.46350    1.000
    C36      C        0.62290    0.60930    0.46370    1.000
    O19      O        0.90400    0.33000    0.17200    1.000
    O20      O        0.88950    0.52260    0.17770    1.000
    C37      C        0.91940    0.44440    0.14160    1.000
    C38      C        0.98540    0.48410    0.07280    1.000
    C39      C        0.99940    0.60260    0.03650    1.000
    C40      C        0.98640    0.37710    0.03630    1.000
    O21      O        0.42600    0.09600    0.17200    1.000
    O22      O        0.63310    0.11050    0.17770    1.000
    C41      C        0.52500    0.08060    0.14160    1.000
    C42      C        0.49870    0.01460    0.07280    1.000
    C43      C        0.60320    0.00060    0.03650    1.000
    C44      C        0.39070    0.01360    0.03630    1.000
    O23      O        0.67000    0.57400    0.17200    1.000
    O24      O        0.47740    0.36690    0.17770    1.000
    C45      C        0.55560    0.47500    0.14160    1.000
    C46      C        0.51590    0.50130    0.07280    1.000
    C47      C        0.39740    0.39680    0.03650    1.000
    C48      C        0.62290    0.60930    0.03630    1.000
    Cr1      Cr       0.22360    0.76280    0.75000    1.000
    Cr2      Cr       0.23720    0.46080    0.75000    1.000
    Cr3      Cr       0.53920    0.77640    0.75000    1.000
    Cr4      Cr       0.76280    0.22360    0.25000    1.000
    Cr5      Cr       0.46080    0.23720    0.25000    1.000
    Cr6      Cr       0.77640    0.53920    0.25000    1.000
    O25      O        0.33333    0.66667    0.75000    1.000
    O26      O        0.66667    0.33333    0.25000    1.000
