# CIF file generated by openbabel 3.1.0, see https://openbabel.org
data_I
_chemical_name_common 'GEDTAM_clean'
_cell_length_a 13.645
_cell_length_b 14.2731
_cell_length_c 16.1135
_cell_angle_alpha 116.289
_cell_angle_beta 99.0059
_cell_angle_gamma 90
_space_group_name_H-M_alt 'P 1'
_space_group_name_Hall 'P 1'
loop_
    _symmetry_equiv_pos_as_xyz
    x,y,z
loop_
    _atom_site_label
    _atom_site_type_symbol
    _atom_site_fract_x
    _atom_site_fract_y
    _atom_site_fract_z
    _atom_site_occupancy
    Nd1      Nd       0.04339    0.03041    0.63589    1.000
    Nd2      Nd       0.45661    0.39452    0.36411    1.000
    Nd3      Nd       0.95661    0.96959    0.36411    1.000
    Nd4      Nd       0.54339    0.60548    0.63589    1.000
    H1       H        0.91730    0.11820    0.93520    1.000
    H2       H        0.87810    0.22270    0.08020    1.000
    H3       H        0.90190    0.47100    0.03320    1.000
    H4       H        0.95030    0.36670    0.89000    1.000
    H5       H        0.88700    0.38400    0.19800    1.000
    H6       H        0.92070    0.69800    0.31840    1.000
    H7       H        0.72460    0.47240    0.28740    1.000
    H8       H        0.80160    0.72040    0.53940    1.000
    H9       H        0.58270    0.18300    0.06480    1.000
    H10      H        0.62190    0.14250    0.91980    1.000
    H11      H        0.59810    0.43780    0.96680    1.000
    H12      H        0.54970    0.47670    0.11000    1.000
    H13      H        0.61300    0.18600    0.80200    1.000
    H14      H        0.57930    0.37960    0.68160    1.000
    H15      H        0.77540    0.18500    0.71260    1.000
    H16      H        0.69840    0.18100    0.46060    1.000
    H17      H        0.08270    0.88180    0.06480    1.000
    H18      H        0.12190    0.77730    0.91980    1.000
    H19      H        0.09810    0.52900    0.96680    1.000
    H20      H        0.04970    0.63330    0.11000    1.000
    H21      H        0.11300    0.61600    0.80200    1.000
    H22      H        0.07930    0.30200    0.68160    1.000
    H23      H        0.27540    0.52760    0.71260    1.000
    H24      H        0.19840    0.27960    0.46060    1.000
    H25      H        0.41730    0.81700    0.93520    1.000
    H26      H        0.37810    0.85750    0.08020    1.000
    H27      H        0.40190    0.56220    0.03320    1.000
    H28      H        0.45030    0.52330    0.89000    1.000
    H29      H        0.38700    0.81400    0.19800    1.000
    H30      H        0.42070    0.62040    0.31840    1.000
    H31      H        0.22460    0.81500    0.28740    1.000
    H32      H        0.30160    0.81900    0.53940    1.000
    C1       C        0.97900    0.16490    0.80940    1.000
    C2       C        0.94240    0.23250    0.89860    1.000
    C3       C        0.91650    0.19010    0.95540    1.000
    C4       C        0.88940    0.25200    0.04100    1.000
    C5       C        0.87950    0.35320    0.06740    1.000
    C6       C        0.90490    0.39920    0.01300    1.000
    C7       C        0.93510    0.33660    0.92760    1.000
    C8       C        0.85480    0.42040    0.16300    1.000
    C9       C        0.92930    0.82830    0.50020    1.000
    C10      C        0.87290    0.72480    0.43980    1.000
    C11      C        0.88120    0.66910    0.34460    1.000
    C12      C        0.83080    0.57170    0.29020    1.000
    C13      C        0.76330    0.53460    0.32640    1.000
    C14      C        0.75220    0.58920    0.42100    1.000
    C15      C        0.80760    0.68350    0.47640    1.000
    C16      C        0.67880    0.54790    0.45680    1.000
    C17      C        0.52100    0.35550    0.19060    1.000
    C18      C        0.55760    0.33390    0.10140    1.000
    C19      C        0.58350    0.23470    0.04460    1.000
    C20      C        0.61060    0.21100    0.95900    1.000
    C21      C        0.62050    0.28580    0.93260    1.000
    C22      C        0.59510    0.38620    0.98700    1.000
    C23      C        0.56490    0.40900    0.07240    1.000
    C24      C        0.64520    0.25740    0.83700    1.000
    C25      C        0.57070    0.32810    0.49980    1.000
    C26      C        0.62710    0.28500    0.56020    1.000
    C27      C        0.61880    0.32450    0.65540    1.000
    C28      C        0.66920    0.28150    0.70980    1.000
    C29      C        0.73670    0.20820    0.67360    1.000
    C30      C        0.74780    0.16820    0.57900    1.000
    C31      C        0.69240    0.20710    0.52360    1.000
    C32      C        0.82120    0.09110    0.54320    1.000
    C33      C        0.02100    0.83510    0.19060    1.000
    C34      C        0.05760    0.76750    0.10140    1.000
    C35      C        0.08350    0.80990    0.04460    1.000
    C36      C        0.11060    0.74800    0.95900    1.000
    C37      C        0.12050    0.64680    0.93260    1.000
    C38      C        0.09510    0.60080    0.98700    1.000
    C39      C        0.06490    0.66340    0.07240    1.000
    C40      C        0.14520    0.57960    0.83700    1.000
    C41      C        0.07070    0.17170    0.49980    1.000
    C42      C        0.12710    0.27520    0.56020    1.000
    C43      C        0.11880    0.33090    0.65540    1.000
    C44      C        0.16920    0.42830    0.70980    1.000
    C45      C        0.23670    0.46540    0.67360    1.000
    C46      C        0.24780    0.41080    0.57900    1.000
    C47      C        0.19240    0.31650    0.52360    1.000
    C48      C        0.32120    0.45210    0.54320    1.000
    C49      C        0.47900    0.64450    0.80940    1.000
    C50      C        0.44240    0.66610    0.89860    1.000
    C51      C        0.41650    0.76530    0.95540    1.000
    C52      C        0.38940    0.78900    0.04100    1.000
    C53      C        0.37950    0.71420    0.06740    1.000
    C54      C        0.40490    0.61380    0.01300    1.000
    C55      C        0.43510    0.59100    0.92760    1.000
    C56      C        0.35480    0.74260    0.16300    1.000
    C57      C        0.42930    0.67190    0.50020    1.000
    C58      C        0.37290    0.71500    0.43980    1.000
    C59      C        0.38120    0.67550    0.34460    1.000
    C60      C        0.33080    0.71850    0.29020    1.000
    C61      C        0.26330    0.79180    0.32640    1.000
    C62      C        0.25220    0.83180    0.42100    1.000
    C63      C        0.30760    0.79290    0.47640    1.000
    C64      C        0.17880    0.90890    0.45680    1.000
    N1       N        0.85090    0.51560    0.19700    1.000
    N2       N        0.64910    0.31860    0.80300    1.000
    N3       N        0.14910    0.48440    0.80300    1.000
    N4       N        0.35090    0.68140    0.19700    1.000
    O1       O        0.98280    0.06960    0.78440    1.000
    O2       O        0.00630    0.20844    0.76168    1.000
    O3       O        0.94800    0.86028    0.58836    1.000
    O4       O        0.96080    0.88299    0.46358    1.000
    O5       O        0.66920    0.60289    0.54278    1.000
    O6       O        0.62860    0.46183    0.40226    1.000
    O7       O        0.51720    0.28520    0.21560    1.000
    O8       O        0.49370    0.44676    0.23832    1.000
    O9       O        0.55200    0.27192    0.41164    1.000
    O10      O        0.53920    0.41941    0.53642    1.000
    O11      O        0.83080    0.06011    0.45722    1.000
    O12      O        0.87140    0.05957    0.59774    1.000
    O13      O        0.01720    0.93040    0.21560    1.000
    O14      O        0.99370    0.79156    0.23832    1.000
    O15      O        0.05200    0.13972    0.41164    1.000
    O16      O        0.03920    0.11701    0.53642    1.000
    O17      O        0.33080    0.39711    0.45722    1.000
    O18      O        0.37140    0.53817    0.59774    1.000
    O19      O        0.48280    0.71480    0.78440    1.000
    O20      O        0.50630    0.55324    0.76168    1.000
    O21      O        0.44800    0.72808    0.58836    1.000
    O22      O        0.46080    0.58059    0.46358    1.000
    O23      O        0.16920    0.93989    0.54278    1.000
    O24      O        0.12860    0.94043    0.40226    1.000
