# CIF file generated by openbabel 3.1.0, see https://openbabel.org
data_I
_chemical_name_common 'image0'
_cell_length_a 15.023
_cell_length_b 10.1643
_cell_length_c 18.196
_cell_angle_alpha 90
_cell_angle_beta 114.233
_cell_angle_gamma 90
_space_group_name_H-M_alt 'P 1'
_space_group_name_Hall 'P 1'
loop_
    _symmetry_equiv_pos_as_xyz
    x,y,z
loop_
    _atom_site_label
    _atom_site_type_symbol
    _atom_site_fract_x
    _atom_site_fract_y
    _atom_site_fract_z
    _atom_site_occupancy
    Zn1      Zn       0.11150    0.27736    0.23655    1.000
    Zn2      Zn       0.84417    0.05025    0.04666    1.000
    C1       C        0.17467    0.66500    0.20190    1.000
    H1       H        0.23850    0.70640    0.21630    1.000
    C2       C        0.10889    0.74020    0.23557    1.000
    H2       H        0.13080    0.83180    0.24650    1.000
    C3       C        0.02346    0.73100    0.15121    1.000
    H3       H        0.98790    0.64930    0.14920    1.000
    C4       C        0.09852    0.70230    0.11489    1.000
    H4       H        0.08000    0.62720    0.07780    1.000
    C5       C        0.18120    0.51850    0.21858    1.000
    C6       C        0.09737    0.68460    0.30745    1.000
    C7       C        0.95059    0.84070    0.12414    1.000
    C8       C        0.13045    0.82070    0.08132    1.000
    O1       O        0.09923    0.45599    0.19243    1.000
    O2       O        0.26031    0.46510    0.25612    1.000
    O3       O        0.01465    0.67915    0.30960    1.000
    O4       O        0.17405    0.64528    0.36495    1.000
    O5       O        0.94381    0.91217    0.06528    1.000
    O6       O        0.89605    0.85693    0.16024    1.000
    O7       O        0.11794    0.80895    0.00752    1.000
    O8       O        0.16755    0.91780    0.12343    1.000
    N1       N        0.22348    0.15310    0.29592    1.000
    C9       C        0.30500    0.15060    0.28330    1.000
    H5       H        0.31120    0.20990    0.24670    1.000
    C10      C        0.38020    0.06400    0.32210    1.000
    H6       H        0.43560    0.06560    0.31140    1.000
    C11      C        0.37350    0.97470    0.37700    1.000
    C12      C        0.28910    0.97670    0.38850    1.000
    H7       H        0.28030    0.91740    0.42380    1.000
    C13      C        0.21680    0.06670    0.34770    1.000
    H8       H        0.16050    0.06640    0.35710    1.000
    N2       N        0.70864    0.53090    0.49390    1.000
    C14      C        0.66490    0.57070    0.54078    1.000
    H9       H        0.69510    0.55380    0.59580    1.000
    C15      C        0.57670    0.63580    0.51080    1.000
    H10      H        0.54840    0.66160    0.54540    1.000
    C16      C        0.53000    0.66290    0.42910    1.000
    C17      C        0.57460    0.61990    0.38170    1.000
    H11      H        0.54510    0.63400    0.32630    1.000
    C18      C        0.66290    0.55580    0.41510    1.000
    H12      H        0.69200    0.52870    0.38130    1.000
    C19      C        0.45630    0.88010    0.42130    1.000
    H13      H        0.51410    0.90970    0.41500    1.000
    H14      H        0.47040    0.88310    0.47830    1.000
    C20      C        0.43630    0.74260    0.39360    1.000
    H15      H        0.41020    0.73970    0.33520    1.000
    H16      H        0.38820    0.70530    0.41030    1.000
    Zn3      Zn       0.88850    0.77736    0.26345    1.000
    Zn4      Zn       0.15583    0.55025    0.45334    1.000
    C21      C        0.82533    0.16500    0.29810    1.000
    H17      H        0.76150    0.20640    0.28370    1.000
    C22      C        0.89111    0.24020    0.26443    1.000
    H18      H        0.86920    0.33180    0.25350    1.000
    C23      C        0.97654    0.23100    0.34879    1.000
    H19      H        0.01210    0.14930    0.35080    1.000
    C24      C        0.90148    0.20230    0.38511    1.000
    H20      H        0.92000    0.12720    0.42220    1.000
    C25      C        0.81880    0.01850    0.28142    1.000
    C26      C        0.90263    0.18460    0.19255    1.000
    C27      C        0.04941    0.34070    0.37586    1.000
    C28      C        0.86955    0.32070    0.41868    1.000
    O9       O        0.90077    0.95599    0.30757    1.000
    O10      O        0.73969    0.96510    0.24388    1.000
    O11      O        0.98535    0.17915    0.19040    1.000
    O12      O        0.82595    0.14528    0.13505    1.000
    O13      O        0.05619    0.41217    0.43472    1.000
    O14      O        0.10395    0.35693    0.33976    1.000
    O15      O        0.88206    0.30895    0.49248    1.000
    O16      O        0.83245    0.41780    0.37657    1.000
    N3       N        0.77652    0.65310    0.20408    1.000
    C29      C        0.69500    0.65060    0.21670    1.000
    H21      H        0.68880    0.70990    0.25330    1.000
    C30      C        0.61980    0.56400    0.17790    1.000
    H22      H        0.56440    0.56560    0.18860    1.000
    C31      C        0.62650    0.47470    0.12300    1.000
    C32      C        0.71090    0.47670    0.11150    1.000
    H23      H        0.71970    0.41740    0.07620    1.000
    C33      C        0.78320    0.56670    0.15230    1.000
    H24      H        0.83950    0.56640    0.14290    1.000
    N4       N        0.29136    0.03090    0.00610    1.000
    C34      C        0.33510    0.07070    0.95922    1.000
    H25      H        0.30490    0.05380    0.90420    1.000
    C35      C        0.42330    0.13580    0.98920    1.000
    H26      H        0.45160    0.16160    0.95460    1.000
    C36      C        0.47000    0.16290    0.07090    1.000
    C37      C        0.42540    0.11990    0.11830    1.000
    H27      H        0.45490    0.13400    0.17370    1.000
    C38      C        0.33710    0.05580    0.08490    1.000
    H28      H        0.30800    0.02870    0.11870    1.000
    C39      C        0.54370    0.38010    0.07870    1.000
    H29      H        0.48590    0.40970    0.08500    1.000
    H30      H        0.52960    0.38310    0.02170    1.000
    C40      C        0.56370    0.24260    0.10640    1.000
    H31      H        0.58980    0.23970    0.16480    1.000
    H32      H        0.61180    0.20530    0.08970    1.000
    Zn5      Zn       0.88850    0.72264    0.76345    1.000
    Zn6      Zn       0.15583    0.94975    0.95334    1.000
    C41      C        0.82533    0.33500    0.79810    1.000
    H33      H        0.76150    0.29360    0.78370    1.000
    C42      C        0.89111    0.25980    0.76443    1.000
    H34      H        0.86920    0.16820    0.75350    1.000
    C43      C        0.97654    0.26900    0.84879    1.000
    H35      H        0.01210    0.35070    0.85080    1.000
    C44      C        0.90148    0.29770    0.88511    1.000
    H36      H        0.92000    0.37280    0.92220    1.000
    C45      C        0.81880    0.48150    0.78142    1.000
    C46      C        0.90263    0.31540    0.69255    1.000
    C47      C        0.04941    0.15930    0.87586    1.000
    C48      C        0.86955    0.17930    0.91868    1.000
    O17      O        0.90077    0.54401    0.80757    1.000
    O18      O        0.73969    0.53490    0.74388    1.000
    O19      O        0.98535    0.32085    0.69040    1.000
    O20      O        0.82595    0.35472    0.63505    1.000
    O21      O        0.05619    0.08783    0.93472    1.000
    O22      O        0.10395    0.14307    0.83976    1.000
    O23      O        0.88206    0.19105    0.99248    1.000
    O24      O        0.83245    0.08220    0.87657    1.000
    N5       N        0.77652    0.84690    0.70408    1.000
    C49      C        0.69500    0.84940    0.71670    1.000
    H37      H        0.68880    0.79010    0.75330    1.000
    C50      C        0.61980    0.93600    0.67790    1.000
    H38      H        0.56440    0.93440    0.68860    1.000
    C51      C        0.62650    0.02530    0.62300    1.000
    C52      C        0.71090    0.02330    0.61150    1.000
    H39      H        0.71970    0.08260    0.57620    1.000
    C53      C        0.78320    0.93330    0.65230    1.000
    H40      H        0.83950    0.93360    0.64290    1.000
    N6       N        0.29136    0.46910    0.50610    1.000
    C54      C        0.33510    0.42930    0.45922    1.000
    H41      H        0.30490    0.44620    0.40420    1.000
    C55      C        0.42330    0.36420    0.48920    1.000
    H42      H        0.45160    0.33840    0.45460    1.000
    C56      C        0.47000    0.33710    0.57090    1.000
    C57      C        0.42540    0.38010    0.61830    1.000
    H43      H        0.45490    0.36600    0.67370    1.000
    C58      C        0.33710    0.44420    0.58490    1.000
    H44      H        0.30800    0.47130    0.61870    1.000
    C59      C        0.54370    0.11990    0.57870    1.000
    H45      H        0.48590    0.09030    0.58500    1.000
    H46      H        0.52960    0.11690    0.52170    1.000
    C60      C        0.56370    0.25740    0.60640    1.000
    H47      H        0.58980    0.26030    0.66480    1.000
    H48      H        0.61180    0.29470    0.58970    1.000
    Zn7      Zn       0.11150    0.22264    0.73655    1.000
    Zn8      Zn       0.84417    0.44975    0.54666    1.000
    C61      C        0.17467    0.83500    0.70190    1.000
    H49      H        0.23850    0.79360    0.71630    1.000
    C62      C        0.10889    0.75980    0.73557    1.000
    H50      H        0.13080    0.66820    0.74650    1.000
    C63      C        0.02346    0.76900    0.65121    1.000
    H51      H        0.98790    0.85070    0.64920    1.000
    C64      C        0.09852    0.79770    0.61489    1.000
    H52      H        0.08000    0.87280    0.57780    1.000
    C65      C        0.18120    0.98150    0.71858    1.000
    C66      C        0.09737    0.81540    0.80745    1.000
    C67      C        0.95059    0.65930    0.62414    1.000
    C68      C        0.13045    0.67930    0.58132    1.000
    O25      O        0.09923    0.04401    0.69243    1.000
    O26      O        0.26031    0.03490    0.75612    1.000
    O27      O        0.01465    0.82085    0.80960    1.000
    O28      O        0.17405    0.85472    0.86495    1.000
    O29      O        0.94381    0.58783    0.56528    1.000
    O30      O        0.89605    0.64307    0.66024    1.000
    O31      O        0.11794    0.69105    0.50752    1.000
    O32      O        0.16755    0.58220    0.62343    1.000
    N7       N        0.22348    0.34690    0.79592    1.000
    C69      C        0.30500    0.34940    0.78330    1.000
    H53      H        0.31120    0.29010    0.74670    1.000
    C70      C        0.38020    0.43600    0.82210    1.000
    H54      H        0.43560    0.43440    0.81140    1.000
    C71      C        0.37350    0.52530    0.87700    1.000
    C72      C        0.28910    0.52330    0.88850    1.000
    H55      H        0.28030    0.58260    0.92380    1.000
    C73      C        0.21680    0.43330    0.84770    1.000
    H56      H        0.16050    0.43360    0.85710    1.000
    N8       N        0.70864    0.96910    0.99390    1.000
    C74      C        0.66490    0.92930    0.04078    1.000
    H57      H        0.69510    0.94620    0.09580    1.000
    C75      C        0.57670    0.86420    0.01080    1.000
    H58      H        0.54840    0.83840    0.04540    1.000
    C76      C        0.53000    0.83710    0.92910    1.000
    C77      C        0.57460    0.88010    0.88170    1.000
    H59      H        0.54510    0.86600    0.82630    1.000
    C78      C        0.66290    0.94420    0.91510    1.000
    H60      H        0.69200    0.97130    0.88130    1.000
    C79      C        0.45630    0.61990    0.92130    1.000
    H61      H        0.51410    0.59030    0.91500    1.000
    H62      H        0.47040    0.61690    0.97830    1.000
    C80      C        0.43630    0.75740    0.89360    1.000
    H63      H        0.41020    0.76030    0.83520    1.000
    H64      H        0.38820    0.79470    0.91030    1.000
