# CIF file generated by openbabel 3.1.0, see https://openbabel.org
data_I
_chemical_name_common 'image0'
_cell_length_a 34.7285
_cell_length_b 14.8592
_cell_length_c 30.9411
_cell_angle_alpha 90
_cell_angle_beta 101.514
_cell_angle_gamma 90
_space_group_name_H-M_alt 'P 1'
_space_group_name_Hall 'P 1'
loop_
    _symmetry_equiv_pos_as_xyz
    x,y,z
loop_
    _atom_site_label
    _atom_site_type_symbol
    _atom_site_fract_x
    _atom_site_fract_y
    _atom_site_fract_z
    _atom_site_occupancy
    I1       I        0.52647    0.15177    0.13313    1.000
    I2       I        0.62052    0.23941    0.05817    1.000
    I3       I        0.88967    0.24065    0.40476    1.000
    I4       I        0.85114    0.09016    0.51464    1.000
    I5       I        0.74011    0.27388    0.30380    1.000
    Zn1      Zn       0.58328    0.12495    0.09389    1.000
    Zn2      Zn       0.87300    0.09726    0.44147    1.000
    Zn3      Zn       0.67616    0.35521    0.27502    1.000
    N1       N        0.72040    0.94950    0.27330    1.000
    N2       N        0.68030    0.82220    0.25130    1.000
    N3       N        0.73300    0.81080    0.31240    1.000
    N4       N        0.62220    0.05350    0.14060    1.000
    N5       N        0.68520    0.49270    0.28030    1.000
    N6       N        0.53780    0.35170    0.41220    1.000
    N7       N        0.57410    0.22040    0.43790    1.000
    N8       N        0.83050    0.03320    0.39640    1.000
    N9       N        0.52210    0.26880    0.47180    1.000
    N10      N        0.56930    0.97970    0.54870    1.000
    N11      N        0.64170    0.33650    0.32100    1.000
    C1       C        0.69000    0.90670    0.24760    1.000
    C2       C        0.66720    0.95950    0.21050    1.000
    C3       C        0.70360    0.77700    0.28320    1.000
    N12      N        0.42000    0.51200    0.44440    1.000
    C4       C        0.51670    0.33600    0.44310    1.000
    C5       C        0.55720    0.13030    0.49560    1.000
    C6       C        0.77120    0.94560    0.33800    1.000
    C7       C        0.69690    0.67770    0.28410    1.000
    C8       C        0.48320    0.39740    0.44390    1.000
    C9       C        0.67810    0.04500    0.19940    1.000
    H1       H        0.70080    0.07180    0.21530    1.000
    C10      C        0.55030    0.21120    0.46680    1.000
    C11      C        0.53030    0.10740    0.52100    1.000
    H2       H        0.50810    0.14250    0.52070    1.000
    C12      C        0.56660    0.29210    0.41160    1.000
    C13      C        0.73930    0.89980    0.30680    1.000
    C14      C        0.81020    0.07490    0.36080    1.000
    H3       H        0.81610    0.13450    0.35580    1.000
    C15      C        0.78100    0.03320    0.33150    1.000
    H4       H        0.76770    0.06450    0.30700    1.000
    C16      C        0.46700    0.40540    0.47980    1.000
    H5       H        0.47670    0.37120    0.50480    1.000
    C17      C        0.65500    0.08950    0.16480    1.000
    H6       H        0.66240    0.14710    0.15790    1.000
    C18      C        0.66770    0.63980    0.25380    1.000
    H7       H        0.65110    0.67590    0.23360    1.000
    C19      C        0.53730    0.03070    0.54720    1.000
    H8       H        0.51920    0.01440    0.56410    1.000
    C20      C        0.72070    0.62150    0.31300    1.000
    H9       H        0.74120    0.64470    0.33420    1.000
    C21      C        0.71370    0.52960    0.31010    1.000
    H10      H        0.72970    0.49180    0.32990    1.000
    C22      C        0.66270    0.54750    0.25290    1.000
    H11      H        0.64250    0.52300    0.23190    1.000
    C23      C        0.79180    0.90100    0.37460    1.000
    H12      H        0.78670    0.84100    0.38000    1.000
    C24      C        0.43600    0.46460    0.47980    1.000
    H13      H        0.42610    0.47110    0.50540    1.000
    C25      C        0.59210    0.30680    0.38000    1.000
    C26      C        0.58900    0.07650    0.49730    1.000
    H14      H        0.60730    0.09060    0.48000    1.000
    C27      C        0.63450    0.92140    0.18470    1.000
    H15      H        0.62720    0.86280    0.18980    1.000
    C28      C        0.62880    0.26610    0.38600    1.000
    H16      H        0.63730    0.22840    0.41000    1.000
    C29      C        0.59490    0.00200    0.52380    1.000
    H17      H        0.61700    0.96650    0.52430    1.000
    C30      C        0.58210    0.36400    0.34400    1.000
    H18      H        0.55840    0.39500    0.33940    1.000
    C31      C        0.82080    0.94980    0.40350    1.000
    H19      H        0.83390    0.92150    0.42910    1.000
    C32      C        0.61250    0.97170    0.15090    1.000
    H20      H        0.58970    0.94630    0.13470    1.000
    C33      C        0.60710    0.37490    0.31530    1.000
    H21      H        0.59920    0.41120    0.29070    1.000
    C34      C        0.65260    0.28260    0.35570    1.000
    H22      H        0.67700    0.25480    0.35980    1.000
    C35      C        0.43600    0.50150    0.40940    1.000
    H23      H        0.42490    0.53340    0.38410    1.000
    C36      C        0.46770    0.44760    0.40710    1.000
    H24      H        0.47820    0.44510    0.38170    1.000
    I6       I        0.64330    0.32060    0.20201    1.000
    I7       I        0.62809    0.33410    0.19622    1.000
    I8       I        0.02647    0.65177    0.13313    1.000
    I9       I        0.12052    0.73941    0.05817    1.000
    I10      I        0.38967    0.74065    0.40476    1.000
    I11      I        0.35114    0.59016    0.51464    1.000
    I12      I        0.24011    0.77388    0.30380    1.000
    Zn4      Zn       0.08328    0.62495    0.09389    1.000
    Zn5      Zn       0.37300    0.59726    0.44147    1.000
    Zn6      Zn       0.17616    0.85521    0.27502    1.000
    N13      N        0.22040    0.44950    0.27330    1.000
    N14      N        0.18030    0.32220    0.25130    1.000
    N15      N        0.23300    0.31080    0.31240    1.000
    N16      N        0.12220    0.55350    0.14060    1.000
    N17      N        0.18520    0.99270    0.28030    1.000
    N18      N        0.03780    0.85170    0.41220    1.000
    N19      N        0.07410    0.72040    0.43790    1.000
    N20      N        0.33050    0.53320    0.39640    1.000
    N21      N        0.02210    0.76880    0.47180    1.000
    N22      N        0.06930    0.47970    0.54870    1.000
    N23      N        0.14170    0.83650    0.32100    1.000
    C37      C        0.19000    0.40670    0.24760    1.000
    C38      C        0.16720    0.45950    0.21050    1.000
    C39      C        0.20360    0.27700    0.28320    1.000
    N24      N        0.92000    0.01200    0.44440    1.000
    C40      C        0.01670    0.83600    0.44310    1.000
    C41      C        0.05720    0.63030    0.49560    1.000
    C42      C        0.27120    0.44560    0.33800    1.000
    C43      C        0.19690    0.17770    0.28410    1.000
    C44      C        0.98320    0.89740    0.44390    1.000
    C45      C        0.17810    0.54500    0.19940    1.000
    H25      H        0.20080    0.57180    0.21530    1.000
    C46      C        0.05030    0.71120    0.46680    1.000
    C47      C        0.03030    0.60740    0.52100    1.000
    H26      H        0.00810    0.64250    0.52070    1.000
    C48      C        0.06660    0.79210    0.41160    1.000
    C49      C        0.23930    0.39980    0.30680    1.000
    C50      C        0.31020    0.57490    0.36080    1.000
    H27      H        0.31610    0.63450    0.35580    1.000
    C51      C        0.28100    0.53320    0.33150    1.000
    H28      H        0.26770    0.56450    0.30700    1.000
    C52      C        0.96700    0.90540    0.47980    1.000
    H29      H        0.97670    0.87120    0.50480    1.000
    C53      C        0.15500    0.58950    0.16480    1.000
    H30      H        0.16240    0.64710    0.15790    1.000
    C54      C        0.16770    0.13980    0.25380    1.000
    H31      H        0.15110    0.17590    0.23360    1.000
    C55      C        0.03730    0.53070    0.54720    1.000
    H32      H        0.01920    0.51440    0.56410    1.000
    C56      C        0.22070    0.12150    0.31300    1.000
    H33      H        0.24120    0.14470    0.33420    1.000
    C57      C        0.21370    0.02960    0.31010    1.000
    H34      H        0.22970    0.99180    0.32990    1.000
    C58      C        0.16270    0.04750    0.25290    1.000
    H35      H        0.14250    0.02300    0.23190    1.000
    C59      C        0.29180    0.40100    0.37460    1.000
    H36      H        0.28670    0.34100    0.38000    1.000
    C60      C        0.93600    0.96460    0.47980    1.000
    H37      H        0.92610    0.97110    0.50540    1.000
    C61      C        0.09210    0.80680    0.38000    1.000
    C62      C        0.08900    0.57650    0.49730    1.000
    H38      H        0.10730    0.59060    0.48000    1.000
    C63      C        0.13450    0.42140    0.18470    1.000
    H39      H        0.12720    0.36280    0.18980    1.000
    C64      C        0.12880    0.76610    0.38600    1.000
    H40      H        0.13730    0.72840    0.41000    1.000
    C65      C        0.09490    0.50200    0.52380    1.000
    H41      H        0.11700    0.46650    0.52430    1.000
    C66      C        0.08210    0.86400    0.34400    1.000
    H42      H        0.05840    0.89500    0.33940    1.000
    C67      C        0.32080    0.44980    0.40350    1.000
    H43      H        0.33390    0.42150    0.42910    1.000
    C68      C        0.11250    0.47170    0.15090    1.000
    H44      H        0.08970    0.44630    0.13470    1.000
    C69      C        0.10710    0.87490    0.31530    1.000
    H45      H        0.09920    0.91120    0.29070    1.000
    C70      C        0.15260    0.78260    0.35570    1.000
    H46      H        0.17700    0.75480    0.35980    1.000
    C71      C        0.93600    0.00150    0.40940    1.000
    H47      H        0.92490    0.03340    0.38410    1.000
    C72      C        0.96770    0.94760    0.40710    1.000
    H48      H        0.97820    0.94510    0.38170    1.000
    I13      I        0.14330    0.82060    0.20201    1.000
    I14      I        0.12809    0.83410    0.19622    1.000
    I15      I        0.52647    0.84823    0.63313    1.000
    I16      I        0.62052    0.76059    0.55817    1.000
    I17      I        0.88967    0.75935    0.90476    1.000
    I18      I        0.85114    0.90984    0.01464    1.000
    I19      I        0.74011    0.72612    0.80380    1.000
    Zn7      Zn       0.58328    0.87505    0.59389    1.000
    Zn8      Zn       0.87300    0.90274    0.94147    1.000
    Zn9      Zn       0.67616    0.64479    0.77502    1.000
    N25      N        0.72040    0.05050    0.77330    1.000
    N26      N        0.68030    0.17780    0.75130    1.000
    N27      N        0.73300    0.18920    0.81240    1.000
    N28      N        0.62220    0.94650    0.64060    1.000
    N29      N        0.68520    0.50730    0.78030    1.000
    N30      N        0.53780    0.64830    0.91220    1.000
    N31      N        0.57410    0.77960    0.93790    1.000
    N32      N        0.83050    0.96680    0.89640    1.000
    N33      N        0.52210    0.73120    0.97180    1.000
    N34      N        0.56930    0.02030    0.04870    1.000
    N35      N        0.64170    0.66350    0.82100    1.000
    C73      C        0.69000    0.09330    0.74760    1.000
    C74      C        0.66720    0.04050    0.71050    1.000
    C75      C        0.70360    0.22300    0.78320    1.000
    N36      N        0.42000    0.48800    0.94440    1.000
    C76      C        0.51670    0.66400    0.94310    1.000
    C77      C        0.55720    0.86970    0.99560    1.000
    C78      C        0.77120    0.05440    0.83800    1.000
    C79      C        0.69690    0.32230    0.78410    1.000
    C80      C        0.48320    0.60260    0.94390    1.000
    C81      C        0.67810    0.95500    0.69940    1.000
    H49      H        0.70080    0.92820    0.71530    1.000
    C82      C        0.55030    0.78880    0.96680    1.000
    C83      C        0.53030    0.89260    0.02100    1.000
    H50      H        0.50810    0.85750    0.02070    1.000
    C84      C        0.56660    0.70790    0.91160    1.000
    C85      C        0.73930    0.10020    0.80680    1.000
    C86      C        0.81020    0.92510    0.86080    1.000
    H51      H        0.81610    0.86550    0.85580    1.000
    C87      C        0.78100    0.96680    0.83150    1.000
    H52      H        0.76770    0.93550    0.80700    1.000
    C88      C        0.46700    0.59460    0.97980    1.000
    H53      H        0.47670    0.62880    0.00480    1.000
    C89      C        0.65500    0.91050    0.66480    1.000
    H54      H        0.66240    0.85290    0.65790    1.000
    C90      C        0.66770    0.36020    0.75380    1.000
    H55      H        0.65110    0.32410    0.73360    1.000
    C91      C        0.53730    0.96930    0.04720    1.000
    H56      H        0.51920    0.98560    0.06410    1.000
    C92      C        0.72070    0.37850    0.81300    1.000
    H57      H        0.74120    0.35530    0.83420    1.000
    C93      C        0.71370    0.47040    0.81010    1.000
    H58      H        0.72970    0.50820    0.82990    1.000
    C94      C        0.66270    0.45250    0.75290    1.000
    H59      H        0.64250    0.47700    0.73190    1.000
    C95      C        0.79180    0.09900    0.87460    1.000
    H60      H        0.78670    0.15900    0.88000    1.000
    C96      C        0.43600    0.53540    0.97980    1.000
    H61      H        0.42610    0.52890    0.00540    1.000
    C97      C        0.59210    0.69320    0.88000    1.000
    C98      C        0.58900    0.92350    0.99730    1.000
    H62      H        0.60730    0.90940    0.98000    1.000
    C99      C        0.63450    0.07860    0.68470    1.000
    H63      H        0.62720    0.13720    0.68980    1.000
    C100     C        0.62880    0.73390    0.88600    1.000
    H64      H        0.63730    0.77160    0.91000    1.000
    C101     C        0.59490    0.99800    0.02380    1.000
    H65      H        0.61700    0.03350    0.02430    1.000
    C102     C        0.58210    0.63600    0.84400    1.000
    H66      H        0.55840    0.60500    0.83940    1.000
    C103     C        0.82080    0.05020    0.90350    1.000
    H67      H        0.83390    0.07850    0.92910    1.000
    C104     C        0.61250    0.02830    0.65090    1.000
    H68      H        0.58970    0.05370    0.63470    1.000
    C105     C        0.60710    0.62510    0.81530    1.000
    H69      H        0.59920    0.58880    0.79070    1.000
    C106     C        0.65260    0.71740    0.85570    1.000
    H70      H        0.67700    0.74520    0.85980    1.000
    C107     C        0.43600    0.49850    0.90940    1.000
    H71      H        0.42490    0.46660    0.88410    1.000
    C108     C        0.46770    0.55240    0.90710    1.000
    H72      H        0.47820    0.55490    0.88170    1.000
    I20      I        0.64330    0.67940    0.70201    1.000
    I21      I        0.62809    0.66590    0.69622    1.000
    I22      I        0.02647    0.34823    0.63313    1.000
    I23      I        0.12052    0.26059    0.55817    1.000
    I24      I        0.38967    0.25935    0.90476    1.000
    I25      I        0.35114    0.40984    0.01464    1.000
    I26      I        0.24011    0.22612    0.80380    1.000
    Zn10     Zn       0.08328    0.37505    0.59389    1.000
    Zn11     Zn       0.37300    0.40274    0.94147    1.000
    Zn12     Zn       0.17616    0.14479    0.77502    1.000
    N37      N        0.22040    0.55050    0.77330    1.000
    N38      N        0.18030    0.67780    0.75130    1.000
    N39      N        0.23300    0.68920    0.81240    1.000
    N40      N        0.12220    0.44650    0.64060    1.000
    N41      N        0.18520    0.00730    0.78030    1.000
    N42      N        0.03780    0.14830    0.91220    1.000
    N43      N        0.07410    0.27960    0.93790    1.000
    N44      N        0.33050    0.46680    0.89640    1.000
    N45      N        0.02210    0.23120    0.97180    1.000
    N46      N        0.06930    0.52030    0.04870    1.000
    N47      N        0.14170    0.16350    0.82100    1.000
    C109     C        0.19000    0.59330    0.74760    1.000
    C110     C        0.16720    0.54050    0.71050    1.000
    C111     C        0.20360    0.72300    0.78320    1.000
    N48      N        0.92000    0.98800    0.94440    1.000
    C112     C        0.01670    0.16400    0.94310    1.000
    C113     C        0.05720    0.36970    0.99560    1.000
    C114     C        0.27120    0.55440    0.83800    1.000
    C115     C        0.19690    0.82230    0.78410    1.000
    C116     C        0.98320    0.10260    0.94390    1.000
    C117     C        0.17810    0.45500    0.69940    1.000
    H73      H        0.20080    0.42820    0.71530    1.000
    C118     C        0.05030    0.28880    0.96680    1.000
    C119     C        0.03030    0.39260    0.02100    1.000
    H74      H        0.00810    0.35750    0.02070    1.000
    C120     C        0.06660    0.20790    0.91160    1.000
    C121     C        0.23930    0.60020    0.80680    1.000
    C122     C        0.31020    0.42510    0.86080    1.000
    H75      H        0.31610    0.36550    0.85580    1.000
    C123     C        0.28100    0.46680    0.83150    1.000
    H76      H        0.26770    0.43550    0.80700    1.000
    C124     C        0.96700    0.09460    0.97980    1.000
    H77      H        0.97670    0.12880    0.00480    1.000
    C125     C        0.15500    0.41050    0.66480    1.000
    H78      H        0.16240    0.35290    0.65790    1.000
    C126     C        0.16770    0.86020    0.75380    1.000
    H79      H        0.15110    0.82410    0.73360    1.000
    C127     C        0.03730    0.46930    0.04720    1.000
    H80      H        0.01920    0.48560    0.06410    1.000
    C128     C        0.22070    0.87850    0.81300    1.000
    H81      H        0.24120    0.85530    0.83420    1.000
    C129     C        0.21370    0.97040    0.81010    1.000
    H82      H        0.22970    0.00820    0.82990    1.000
    C130     C        0.16270    0.95250    0.75290    1.000
    H83      H        0.14250    0.97700    0.73190    1.000
    C131     C        0.29180    0.59900    0.87460    1.000
    H84      H        0.28670    0.65900    0.88000    1.000
    C132     C        0.93600    0.03540    0.97980    1.000
    H85      H        0.92610    0.02890    0.00540    1.000
    C133     C        0.09210    0.19320    0.88000    1.000
    C134     C        0.08900    0.42350    0.99730    1.000
    H86      H        0.10730    0.40940    0.98000    1.000
    C135     C        0.13450    0.57860    0.68470    1.000
    H87      H        0.12720    0.63720    0.68980    1.000
    C136     C        0.12880    0.23390    0.88600    1.000
    H88      H        0.13730    0.27160    0.91000    1.000
    C137     C        0.09490    0.49800    0.02380    1.000
    H89      H        0.11700    0.53350    0.02430    1.000
    C138     C        0.08210    0.13600    0.84400    1.000
    H90      H        0.05840    0.10500    0.83940    1.000
    C139     C        0.32080    0.55020    0.90350    1.000
    H91      H        0.33390    0.57850    0.92910    1.000
    C140     C        0.11250    0.52830    0.65090    1.000
    H92      H        0.08970    0.55370    0.63470    1.000
    C141     C        0.10710    0.12510    0.81530    1.000
    H93      H        0.09920    0.08880    0.79070    1.000
    C142     C        0.15260    0.21740    0.85570    1.000
    H94      H        0.17700    0.24520    0.85980    1.000
    C143     C        0.93600    0.99850    0.90940    1.000
    H95      H        0.92490    0.96660    0.88410    1.000
    C144     C        0.96770    0.05240    0.90710    1.000
    H96      H        0.97820    0.05490    0.88170    1.000
    I27      I        0.14330    0.17940    0.70201    1.000
    I28      I        0.12809    0.16590    0.69622    1.000
    I29      I        0.47353    0.15177    0.36687    1.000
    I30      I        0.37948    0.23941    0.44183    1.000
    I31      I        0.11033    0.24065    0.09524    1.000
    I32      I        0.14886    0.09016    0.98536    1.000
    I33      I        0.25989    0.27388    0.19620    1.000
    Zn13     Zn       0.41672    0.12495    0.40611    1.000
    Zn14     Zn       0.12700    0.09726    0.05853    1.000
    Zn15     Zn       0.32384    0.35521    0.22498    1.000
    N49      N        0.27960    0.94950    0.22670    1.000
    N50      N        0.31970    0.82220    0.24870    1.000
    N51      N        0.26700    0.81080    0.18760    1.000
    N52      N        0.37780    0.05350    0.35940    1.000
    N53      N        0.31480    0.49270    0.21970    1.000
    N54      N        0.46220    0.35170    0.08780    1.000
    N55      N        0.42590    0.22040    0.06210    1.000
    N56      N        0.16950    0.03320    0.10360    1.000
    N57      N        0.47790    0.26880    0.02820    1.000
    N58      N        0.43070    0.97970    0.95130    1.000
    N59      N        0.35830    0.33650    0.17900    1.000
    C145     C        0.31000    0.90670    0.25240    1.000
    C146     C        0.33280    0.95950    0.28950    1.000
    C147     C        0.29640    0.77700    0.21680    1.000
    N60      N        0.58000    0.51200    0.05560    1.000
    C148     C        0.48330    0.33600    0.05690    1.000
    C149     C        0.44280    0.13030    0.00440    1.000
    C150     C        0.22880    0.94560    0.16200    1.000
    C151     C        0.30310    0.67770    0.21590    1.000
    C152     C        0.51680    0.39740    0.05610    1.000
    C153     C        0.32190    0.04500    0.30060    1.000
    H97      H        0.29920    0.07180    0.28470    1.000
    C154     C        0.44970    0.21120    0.03320    1.000
    C155     C        0.46970    0.10740    0.97900    1.000
    H98      H        0.49190    0.14250    0.97930    1.000
    C156     C        0.43340    0.29210    0.08840    1.000
    C157     C        0.26070    0.89980    0.19320    1.000
    C158     C        0.18980    0.07490    0.13920    1.000
    H99      H        0.18390    0.13450    0.14420    1.000
    C159     C        0.21900    0.03320    0.16850    1.000
    H100     H        0.23230    0.06450    0.19300    1.000
    C160     C        0.53300    0.40540    0.02020    1.000
    H101     H        0.52330    0.37120    0.99520    1.000
    C161     C        0.34500    0.08950    0.33520    1.000
    H102     H        0.33760    0.14710    0.34210    1.000
    C162     C        0.33230    0.63980    0.24620    1.000
    H103     H        0.34890    0.67590    0.26640    1.000
    C163     C        0.46270    0.03070    0.95280    1.000
    H104     H        0.48080    0.01440    0.93590    1.000
    C164     C        0.27930    0.62150    0.18700    1.000
    H105     H        0.25880    0.64470    0.16580    1.000
    C165     C        0.28630    0.52960    0.18990    1.000
    H106     H        0.27030    0.49180    0.17010    1.000
    C166     C        0.33730    0.54750    0.24710    1.000
    H107     H        0.35750    0.52300    0.26810    1.000
    C167     C        0.20820    0.90100    0.12540    1.000
    H108     H        0.21330    0.84100    0.12000    1.000
    C168     C        0.56400    0.46460    0.02020    1.000
    H109     H        0.57390    0.47110    0.99460    1.000
    C169     C        0.40790    0.30680    0.12000    1.000
    C170     C        0.41100    0.07650    0.00270    1.000
    H110     H        0.39270    0.09060    0.02000    1.000
    C171     C        0.36550    0.92140    0.31530    1.000
    H111     H        0.37280    0.86280    0.31020    1.000
    C172     C        0.37120    0.26610    0.11400    1.000
    H112     H        0.36270    0.22840    0.09000    1.000
    C173     C        0.40510    0.00200    0.97620    1.000
    H113     H        0.38300    0.96650    0.97570    1.000
    C174     C        0.41790    0.36400    0.15600    1.000
    H114     H        0.44160    0.39500    0.16060    1.000
    C175     C        0.17920    0.94980    0.09650    1.000
    H115     H        0.16610    0.92150    0.07090    1.000
    C176     C        0.38750    0.97170    0.34910    1.000
    H116     H        0.41030    0.94630    0.36530    1.000
    C177     C        0.39290    0.37490    0.18470    1.000
    H117     H        0.40080    0.41120    0.20930    1.000
    C178     C        0.34740    0.28260    0.14430    1.000
    H118     H        0.32300    0.25480    0.14020    1.000
    C179     C        0.56400    0.50150    0.09060    1.000
    H119     H        0.57510    0.53340    0.11590    1.000
    C180     C        0.53230    0.44760    0.09290    1.000
    H120     H        0.52180    0.44510    0.11830    1.000
    I34      I        0.35670    0.32060    0.29799    1.000
    I35      I        0.37191    0.33410    0.30378    1.000
    I36      I        0.97353    0.65177    0.36687    1.000
    I37      I        0.87948    0.73941    0.44183    1.000
    I38      I        0.61033    0.74065    0.09524    1.000
    I39      I        0.64886    0.59016    0.98536    1.000
    I40      I        0.75989    0.77388    0.19620    1.000
    Zn16     Zn       0.91672    0.62495    0.40611    1.000
    Zn17     Zn       0.62700    0.59726    0.05853    1.000
    Zn18     Zn       0.82384    0.85521    0.22498    1.000
    N61      N        0.77960    0.44950    0.22670    1.000
    N62      N        0.81970    0.32220    0.24870    1.000
    N63      N        0.76700    0.31080    0.18760    1.000
    N64      N        0.87780    0.55350    0.35940    1.000
    N65      N        0.81480    0.99270    0.21970    1.000
    N66      N        0.96220    0.85170    0.08780    1.000
    N67      N        0.92590    0.72040    0.06210    1.000
    N68      N        0.66950    0.53320    0.10360    1.000
    N69      N        0.97790    0.76880    0.02820    1.000
    N70      N        0.93070    0.47970    0.95130    1.000
    N71      N        0.85830    0.83650    0.17900    1.000
    C181     C        0.81000    0.40670    0.25240    1.000
    C182     C        0.83280    0.45950    0.28950    1.000
    C183     C        0.79640    0.27700    0.21680    1.000
    N72      N        0.08000    0.01200    0.05560    1.000
    C184     C        0.98330    0.83600    0.05690    1.000
    C185     C        0.94280    0.63030    0.00440    1.000
    C186     C        0.72880    0.44560    0.16200    1.000
    C187     C        0.80310    0.17770    0.21590    1.000
    C188     C        0.01680    0.89740    0.05610    1.000
    C189     C        0.82190    0.54500    0.30060    1.000
    H121     H        0.79920    0.57180    0.28470    1.000
    C190     C        0.94970    0.71120    0.03320    1.000
    C191     C        0.96970    0.60740    0.97900    1.000
    H122     H        0.99190    0.64250    0.97930    1.000
    C192     C        0.93340    0.79210    0.08840    1.000
    C193     C        0.76070    0.39980    0.19320    1.000
    C194     C        0.68980    0.57490    0.13920    1.000
    H123     H        0.68390    0.63450    0.14420    1.000
    C195     C        0.71900    0.53320    0.16850    1.000
    H124     H        0.73230    0.56450    0.19300    1.000
    C196     C        0.03300    0.90540    0.02020    1.000
    H125     H        0.02330    0.87120    0.99520    1.000
    C197     C        0.84500    0.58950    0.33520    1.000
    H126     H        0.83760    0.64710    0.34210    1.000
    C198     C        0.83230    0.13980    0.24620    1.000
    H127     H        0.84890    0.17590    0.26640    1.000
    C199     C        0.96270    0.53070    0.95280    1.000
    H128     H        0.98080    0.51440    0.93590    1.000
    C200     C        0.77930    0.12150    0.18700    1.000
    H129     H        0.75880    0.14470    0.16580    1.000
    C201     C        0.78630    0.02960    0.18990    1.000
    H130     H        0.77030    0.99180    0.17010    1.000
    C202     C        0.83730    0.04750    0.24710    1.000
    H131     H        0.85750    0.02300    0.26810    1.000
    C203     C        0.70820    0.40100    0.12540    1.000
    H132     H        0.71330    0.34100    0.12000    1.000
    C204     C        0.06400    0.96460    0.02020    1.000
    H133     H        0.07390    0.97110    0.99460    1.000
    C205     C        0.90790    0.80680    0.12000    1.000
    C206     C        0.91100    0.57650    0.00270    1.000
    H134     H        0.89270    0.59060    0.02000    1.000
    C207     C        0.86550    0.42140    0.31530    1.000
    H135     H        0.87280    0.36280    0.31020    1.000
    C208     C        0.87120    0.76610    0.11400    1.000
    H136     H        0.86270    0.72840    0.09000    1.000
    C209     C        0.90510    0.50200    0.97620    1.000
    H137     H        0.88300    0.46650    0.97570    1.000
    C210     C        0.91790    0.86400    0.15600    1.000
    H138     H        0.94160    0.89500    0.16060    1.000
    C211     C        0.67920    0.44980    0.09650    1.000
    H139     H        0.66610    0.42150    0.07090    1.000
    C212     C        0.88750    0.47170    0.34910    1.000
    H140     H        0.91030    0.44630    0.36530    1.000
    C213     C        0.89290    0.87490    0.18470    1.000
    H141     H        0.90080    0.91120    0.20930    1.000
    C214     C        0.84740    0.78260    0.14430    1.000
    H142     H        0.82300    0.75480    0.14020    1.000
    C215     C        0.06400    0.00150    0.09060    1.000
    H143     H        0.07510    0.03340    0.11590    1.000
    C216     C        0.03230    0.94760    0.09290    1.000
    H144     H        0.02180    0.94510    0.11830    1.000
    I41      I        0.85670    0.82060    0.29799    1.000
    I42      I        0.87191    0.83410    0.30378    1.000
    I43      I        0.47353    0.84823    0.86687    1.000
    I44      I        0.37948    0.76059    0.94183    1.000
    I45      I        0.11033    0.75935    0.59524    1.000
    I46      I        0.14886    0.90984    0.48536    1.000
    I47      I        0.25989    0.72612    0.69620    1.000
    Zn19     Zn       0.41672    0.87505    0.90611    1.000
    Zn20     Zn       0.12700    0.90274    0.55853    1.000
    Zn21     Zn       0.32384    0.64479    0.72498    1.000
    N73      N        0.27960    0.05050    0.72670    1.000
    N74      N        0.31970    0.17780    0.74870    1.000
    N75      N        0.26700    0.18920    0.68760    1.000
    N76      N        0.37780    0.94650    0.85940    1.000
    N77      N        0.31480    0.50730    0.71970    1.000
    N78      N        0.46220    0.64830    0.58780    1.000
    N79      N        0.42590    0.77960    0.56210    1.000
    N80      N        0.16950    0.96680    0.60360    1.000
    N81      N        0.47790    0.73120    0.52820    1.000
    N82      N        0.43070    0.02030    0.45130    1.000
    N83      N        0.35830    0.66350    0.67900    1.000
    C217     C        0.31000    0.09330    0.75240    1.000
    C218     C        0.33280    0.04050    0.78950    1.000
    C219     C        0.29640    0.22300    0.71680    1.000
    N84      N        0.58000    0.48800    0.55560    1.000
    C220     C        0.48330    0.66400    0.55690    1.000
    C221     C        0.44280    0.86970    0.50440    1.000
    C222     C        0.22880    0.05440    0.66200    1.000
    C223     C        0.30310    0.32230    0.71590    1.000
    C224     C        0.51680    0.60260    0.55610    1.000
    C225     C        0.32190    0.95500    0.80060    1.000
    H145     H        0.29920    0.92820    0.78470    1.000
    C226     C        0.44970    0.78880    0.53320    1.000
    C227     C        0.46970    0.89260    0.47900    1.000
    H146     H        0.49190    0.85750    0.47930    1.000
    C228     C        0.43340    0.70790    0.58840    1.000
    C229     C        0.26070    0.10020    0.69320    1.000
    C230     C        0.18980    0.92510    0.63920    1.000
    H147     H        0.18390    0.86550    0.64420    1.000
    C231     C        0.21900    0.96680    0.66850    1.000
    H148     H        0.23230    0.93550    0.69300    1.000
    C232     C        0.53300    0.59460    0.52020    1.000
    H149     H        0.52330    0.62880    0.49520    1.000
    C233     C        0.34500    0.91050    0.83520    1.000
    H150     H        0.33760    0.85290    0.84210    1.000
    C234     C        0.33230    0.36020    0.74620    1.000
    H151     H        0.34890    0.32410    0.76640    1.000
    C235     C        0.46270    0.96930    0.45280    1.000
    H152     H        0.48080    0.98560    0.43590    1.000
    C236     C        0.27930    0.37850    0.68700    1.000
    H153     H        0.25880    0.35530    0.66580    1.000
    C237     C        0.28630    0.47040    0.68990    1.000
    H154     H        0.27030    0.50820    0.67010    1.000
    C238     C        0.33730    0.45250    0.74710    1.000
    H155     H        0.35750    0.47700    0.76810    1.000
    C239     C        0.20820    0.09900    0.62540    1.000
    H156     H        0.21330    0.15900    0.62000    1.000
    C240     C        0.56400    0.53540    0.52020    1.000
    H157     H        0.57390    0.52890    0.49460    1.000
    C241     C        0.40790    0.69320    0.62000    1.000
    C242     C        0.41100    0.92350    0.50270    1.000
    H158     H        0.39270    0.90940    0.52000    1.000
    C243     C        0.36550    0.07860    0.81530    1.000
    H159     H        0.37280    0.13720    0.81020    1.000
    C244     C        0.37120    0.73390    0.61400    1.000
    H160     H        0.36270    0.77160    0.59000    1.000
    C245     C        0.40510    0.99800    0.47620    1.000
    H161     H        0.38300    0.03350    0.47570    1.000
    C246     C        0.41790    0.63600    0.65600    1.000
    H162     H        0.44160    0.60500    0.66060    1.000
    C247     C        0.17920    0.05020    0.59650    1.000
    H163     H        0.16610    0.07850    0.57090    1.000
    C248     C        0.38750    0.02830    0.84910    1.000
    H164     H        0.41030    0.05370    0.86530    1.000
    C249     C        0.39290    0.62510    0.68470    1.000
    H165     H        0.40080    0.58880    0.70930    1.000
    C250     C        0.34740    0.71740    0.64430    1.000
    H166     H        0.32300    0.74520    0.64020    1.000
    C251     C        0.56400    0.49850    0.59060    1.000
    H167     H        0.57510    0.46660    0.61590    1.000
    C252     C        0.53230    0.55240    0.59290    1.000
    H168     H        0.52180    0.55490    0.61830    1.000
    I48      I        0.35670    0.67940    0.79799    1.000
    I49      I        0.37191    0.66590    0.80378    1.000
    I50      I        0.97353    0.34823    0.86687    1.000
    I51      I        0.87948    0.26059    0.94183    1.000
    I52      I        0.61033    0.25935    0.59524    1.000
    I53      I        0.64886    0.40984    0.48536    1.000
    I54      I        0.75989    0.22612    0.69620    1.000
    Zn22     Zn       0.91672    0.37505    0.90611    1.000
    Zn23     Zn       0.62700    0.40274    0.55853    1.000
    Zn24     Zn       0.82384    0.14479    0.72498    1.000
    N85      N        0.77960    0.55050    0.72670    1.000
    N86      N        0.81970    0.67780    0.74870    1.000
    N87      N        0.76700    0.68920    0.68760    1.000
    N88      N        0.87780    0.44650    0.85940    1.000
    N89      N        0.81480    0.00730    0.71970    1.000
    N90      N        0.96220    0.14830    0.58780    1.000
    N91      N        0.92590    0.27960    0.56210    1.000
    N92      N        0.66950    0.46680    0.60360    1.000
    N93      N        0.97790    0.23120    0.52820    1.000
    N94      N        0.93070    0.52030    0.45130    1.000
    N95      N        0.85830    0.16350    0.67900    1.000
    C253     C        0.81000    0.59330    0.75240    1.000
    C254     C        0.83280    0.54050    0.78950    1.000
    C255     C        0.79640    0.72300    0.71680    1.000
    N96      N        0.08000    0.98800    0.55560    1.000
    C256     C        0.98330    0.16400    0.55690    1.000
    C257     C        0.94280    0.36970    0.50440    1.000
    C258     C        0.72880    0.55440    0.66200    1.000
    C259     C        0.80310    0.82230    0.71590    1.000
    C260     C        0.01680    0.10260    0.55610    1.000
    C261     C        0.82190    0.45500    0.80060    1.000
    H169     H        0.79920    0.42820    0.78470    1.000
    C262     C        0.94970    0.28880    0.53320    1.000
    C263     C        0.96970    0.39260    0.47900    1.000
    H170     H        0.99190    0.35750    0.47930    1.000
    C264     C        0.93340    0.20790    0.58840    1.000
    C265     C        0.76070    0.60020    0.69320    1.000
    C266     C        0.68980    0.42510    0.63920    1.000
    H171     H        0.68390    0.36550    0.64420    1.000
    C267     C        0.71900    0.46680    0.66850    1.000
    H172     H        0.73230    0.43550    0.69300    1.000
    C268     C        0.03300    0.09460    0.52020    1.000
    H173     H        0.02330    0.12880    0.49520    1.000
    C269     C        0.84500    0.41050    0.83520    1.000
    H174     H        0.83760    0.35290    0.84210    1.000
    C270     C        0.83230    0.86020    0.74620    1.000
    H175     H        0.84890    0.82410    0.76640    1.000
    C271     C        0.96270    0.46930    0.45280    1.000
    H176     H        0.98080    0.48560    0.43590    1.000
    C272     C        0.77930    0.87850    0.68700    1.000
    H177     H        0.75880    0.85530    0.66580    1.000
    C273     C        0.78630    0.97040    0.68990    1.000
    H178     H        0.77030    0.00820    0.67010    1.000
    C274     C        0.83730    0.95250    0.74710    1.000
    H179     H        0.85750    0.97700    0.76810    1.000
    C275     C        0.70820    0.59900    0.62540    1.000
    H180     H        0.71330    0.65900    0.62000    1.000
    C276     C        0.06400    0.03540    0.52020    1.000
    H181     H        0.07390    0.02890    0.49460    1.000
    C277     C        0.90790    0.19320    0.62000    1.000
    C278     C        0.91100    0.42350    0.50270    1.000
    H182     H        0.89270    0.40940    0.52000    1.000
    C279     C        0.86550    0.57860    0.81530    1.000
    H183     H        0.87280    0.63720    0.81020    1.000
    C280     C        0.87120    0.23390    0.61400    1.000
    H184     H        0.86270    0.27160    0.59000    1.000
    C281     C        0.90510    0.49800    0.47620    1.000
    H185     H        0.88300    0.53350    0.47570    1.000
    C282     C        0.91790    0.13600    0.65600    1.000
    H186     H        0.94160    0.10500    0.66060    1.000
    C283     C        0.67920    0.55020    0.59650    1.000
    H187     H        0.66610    0.57850    0.57090    1.000
    C284     C        0.88750    0.52830    0.84910    1.000
    H188     H        0.91030    0.55370    0.86530    1.000
    C285     C        0.89290    0.12510    0.68470    1.000
    H189     H        0.90080    0.08880    0.70930    1.000
    C286     C        0.84740    0.21740    0.64430    1.000
    H190     H        0.82300    0.24520    0.64020    1.000
    C287     C        0.06400    0.99850    0.59060    1.000
    H191     H        0.07510    0.96660    0.61590    1.000
    C288     C        0.03230    0.05240    0.59290    1.000
    H192     H        0.02180    0.05490    0.61830    1.000
    I55      I        0.85670    0.17940    0.79799    1.000
    I56      I        0.87191    0.16590    0.80378    1.000
