# CIF file generated by openbabel 3.1.0, see https://openbabel.org
data_I
_chemical_name_common 'image0'
_cell_length_a 10.782
_cell_length_b 8.781
_cell_length_c 25.017
_cell_angle_alpha 90
_cell_angle_beta 98.139
_cell_angle_gamma 90
_space_group_name_H-M_alt 'P 1'
_space_group_name_Hall 'P 1'
loop_
    _symmetry_equiv_pos_as_xyz
    x,y,z
loop_
    _atom_site_label
    _atom_site_type_symbol
    _atom_site_fract_x
    _atom_site_fract_y
    _atom_site_fract_z
    _atom_site_occupancy
    Cu1      Cu       0.16107    0.22060    0.73650    1.000
    N1       N        0.22520    0.18280    0.81467    1.000
    O1       O        0.98970    0.18010    0.74837    1.000
    O2       O        0.96800    0.99730    0.68564    1.000
    N2       N        0.60210    0.23360    0.15807    1.000
    O3       O        0.39520    0.97330    0.62610    1.000
    N3       N        0.36680    0.13640    0.97900    1.000
    N4       N        0.50190    0.92910    0.63975    1.000
    C1       C        0.58060    0.01190    0.68240    1.000
    C2       C        0.78780    0.08570    0.71995    1.000
    C3       C        0.37390    0.25670    0.88939    1.000
    H1       H        0.44190    0.31700    0.90320    1.000
    O4       O        0.54600    0.81670    0.62045    1.000
    C4       C        0.22350    0.06510    0.90017    1.000
    H2       H        0.18810    0.99480    0.92140    1.000
    C5       C        0.52690    0.09080    0.72158    1.000
    C6       C        0.32250    0.26740    0.83633    1.000
    H3       H        0.35680    0.33660    0.81440    1.000
    C7       C        0.32270    0.15450    0.92214    1.000
    C8       C        0.49920    0.21460    0.05074    1.000
    C9       C        0.73720    0.16260    0.76006    1.000
    H4       H        0.79020    0.21240    0.78710    1.000
    C10      C        0.70760    0.00860    0.68094    1.000
    H5       H        0.73950    0.95480    0.65390    1.000
    C11      C        0.17770    0.08160    0.84618    1.000
    H6       H        0.11150    0.02020    0.83120    1.000
    N5       N        0.45240    0.22120    0.99438    1.000
    C12      C        0.92670    0.08380    0.71719    1.000
    C13      C        0.60860    0.16680    0.76075    1.000
    H7       H        0.57680    0.22100    0.78770    1.000
    C14      C        0.45040    0.12880    0.08894    1.000
    H8       H        0.38290    0.06390    0.07910    1.000
    C15      C        0.50410    0.14150    0.14223    1.000
    H9       H        0.47120    0.08430    0.16820    1.000
    C16      C        0.64850    0.31360    0.12042    1.000
    H10      H        0.71700    0.37660    0.13090    1.000
    C17      C        0.60020    0.30750    0.06678    1.000
    H11      H        0.63520    0.36540    0.04160    1.000
    C18      C        0.38900    0.09160    0.72690    1.000
    O5       O        0.33562    0.22000    0.71968    1.000
    O6       O        0.33990    0.97360    0.74016    1.000
    Cu2      Cu       0.66107    0.27940    0.23650    1.000
    N6       N        0.72520    0.31720    0.31467    1.000
    O7       O        0.48970    0.31990    0.24837    1.000
    O8       O        0.46800    0.50270    0.18564    1.000
    N7       N        0.10210    0.26640    0.65807    1.000
    O9       O        0.89520    0.52670    0.12610    1.000
    N8       N        0.86680    0.36360    0.47900    1.000
    N9       N        0.00190    0.57090    0.13975    1.000
    C19      C        0.08060    0.48810    0.18240    1.000
    C20      C        0.28780    0.41430    0.21995    1.000
    C21      C        0.87390    0.24330    0.38939    1.000
    H12      H        0.94190    0.18300    0.40320    1.000
    O10      O        0.04600    0.68330    0.12045    1.000
    C22      C        0.72350    0.43490    0.40017    1.000
    H13      H        0.68810    0.50520    0.42140    1.000
    C23      C        0.02690    0.40920    0.22158    1.000
    C24      C        0.82250    0.23260    0.33633    1.000
    H14      H        0.85680    0.16340    0.31440    1.000
    C25      C        0.82270    0.34550    0.42214    1.000
    C26      C        0.99920    0.28540    0.55074    1.000
    C27      C        0.23720    0.33740    0.26006    1.000
    H15      H        0.29020    0.28760    0.28710    1.000
    C28      C        0.20760    0.49140    0.18094    1.000
    H16      H        0.23950    0.54520    0.15390    1.000
    C29      C        0.67770    0.41840    0.34618    1.000
    H17      H        0.61150    0.47980    0.33120    1.000
    N10      N        0.95240    0.27880    0.49438    1.000
    C30      C        0.42670    0.41620    0.21719    1.000
    C31      C        0.10860    0.33320    0.26075    1.000
    H18      H        0.07680    0.27900    0.28770    1.000
    C32      C        0.95040    0.37120    0.58894    1.000
    H19      H        0.88290    0.43610    0.57910    1.000
    C33      C        0.00410    0.35850    0.64223    1.000
    H20      H        0.97120    0.41570    0.66820    1.000
    C34      C        0.14850    0.18640    0.62042    1.000
    H21      H        0.21700    0.12340    0.63090    1.000
    C35      C        0.10020    0.19250    0.56678    1.000
    H22      H        0.13520    0.13460    0.54160    1.000
    C36      C        0.88900    0.40840    0.22690    1.000
    O11      O        0.83562    0.28000    0.21968    1.000
    O12      O        0.83990    0.52640    0.24016    1.000
    Cu3      Cu       0.33893    0.72060    0.76350    1.000
    N11      N        0.27480    0.68280    0.68533    1.000
    O13      O        0.51030    0.68010    0.75163    1.000
    O14      O        0.53200    0.49730    0.81436    1.000
    N12      N        0.89790    0.73360    0.34193    1.000
    O15      O        0.10480    0.47330    0.87390    1.000
    N13      N        0.13320    0.63640    0.52100    1.000
    N14      N        0.99810    0.42910    0.86025    1.000
    C37      C        0.91940    0.51190    0.81760    1.000
    C38      C        0.71220    0.58570    0.78005    1.000
    C39      C        0.12610    0.75670    0.61061    1.000
    H23      H        0.05810    0.81700    0.59680    1.000
    O16      O        0.95400    0.31670    0.87955    1.000
    C40      C        0.27650    0.56510    0.59983    1.000
    H24      H        0.31190    0.49480    0.57860    1.000
    C41      C        0.97310    0.59080    0.77842    1.000
    C42      C        0.17750    0.76740    0.66367    1.000
    H25      H        0.14320    0.83660    0.68560    1.000
    C43      C        0.17730    0.65450    0.57786    1.000
    C44      C        0.00080    0.71460    0.44926    1.000
    C45      C        0.76280    0.66260    0.73994    1.000
    H26      H        0.70980    0.71240    0.71290    1.000
    C46      C        0.79240    0.50860    0.81906    1.000
    H27      H        0.76050    0.45480    0.84610    1.000
    C47      C        0.32230    0.58160    0.65382    1.000
    H28      H        0.38850    0.52020    0.66880    1.000
    N15      N        0.04760    0.72120    0.50562    1.000
    C48      C        0.57330    0.58380    0.78281    1.000
    C49      C        0.89140    0.66680    0.73925    1.000
    H29      H        0.92320    0.72100    0.71230    1.000
    C50      C        0.04960    0.62880    0.41106    1.000
    H30      H        0.11710    0.56390    0.42090    1.000
    C51      C        0.99590    0.64150    0.35777    1.000
    H31      H        0.02880    0.58430    0.33180    1.000
    C52      C        0.85150    0.81360    0.37958    1.000
    H32      H        0.78300    0.87660    0.36910    1.000
    C53      C        0.89980    0.80750    0.43322    1.000
    H33      H        0.86480    0.86540    0.45840    1.000
    C54      C        0.11100    0.59160    0.77310    1.000
    O17      O        0.16438    0.72000    0.78032    1.000
    O18      O        0.16010    0.47360    0.75984    1.000
    Cu4      Cu       0.83893    0.77940    0.26350    1.000
    N16      N        0.77480    0.81720    0.18533    1.000
    O19      O        0.01030    0.81990    0.25163    1.000
    O20      O        0.03200    0.00270    0.31436    1.000
    N17      N        0.39790    0.76640    0.84193    1.000
    O21      O        0.60480    0.02670    0.37390    1.000
    N18      N        0.63320    0.86360    0.02100    1.000
    N19      N        0.49810    0.07090    0.36025    1.000
    C55      C        0.41940    0.98810    0.31760    1.000
    C56      C        0.21220    0.91430    0.28005    1.000
    C57      C        0.62610    0.74330    0.11061    1.000
    H34      H        0.55810    0.68300    0.09680    1.000
    O22      O        0.45400    0.18330    0.37955    1.000
    C58      C        0.77650    0.93490    0.09983    1.000
    H35      H        0.81190    0.00520    0.07860    1.000
    C59      C        0.47310    0.90920    0.27842    1.000
    C60      C        0.67750    0.73260    0.16367    1.000
    H36      H        0.64320    0.66340    0.18560    1.000
    C61      C        0.67730    0.84550    0.07786    1.000
    C62      C        0.50080    0.78540    0.94926    1.000
    C63      C        0.26280    0.83740    0.23994    1.000
    H37      H        0.20980    0.78760    0.21290    1.000
    C64      C        0.29240    0.99140    0.31906    1.000
    H38      H        0.26050    0.04520    0.34610    1.000
    C65      C        0.82230    0.91840    0.15382    1.000
    H39      H        0.88850    0.97980    0.16880    1.000
    N20      N        0.54760    0.77880    0.00562    1.000
    C66      C        0.07330    0.91620    0.28281    1.000
    C67      C        0.39140    0.83320    0.23925    1.000
    H40      H        0.42320    0.77900    0.21230    1.000
    C68      C        0.54960    0.87120    0.91106    1.000
    H41      H        0.61710    0.93610    0.92090    1.000
    C69      C        0.49590    0.85850    0.85777    1.000
    H42      H        0.52880    0.91570    0.83180    1.000
    C70      C        0.35150    0.68640    0.87958    1.000
    H43      H        0.28300    0.62340    0.86910    1.000
    C71      C        0.39980    0.69250    0.93322    1.000
    H44      H        0.36480    0.63460    0.95840    1.000
    C72      C        0.61100    0.90840    0.27310    1.000
    O23      O        0.66438    0.78000    0.28032    1.000
    O24      O        0.66010    0.02640    0.25984    1.000
