# CIF file generated by openbabel 3.1.0, see https://openbabel.org
data_I
_chemical_name_common 'image0'
_cell_length_a 27.313
_cell_length_b 22.017
_cell_length_c 15.836
_cell_angle_alpha 90
_cell_angle_beta 103.218
_cell_angle_gamma 90
_space_group_name_H-M_alt 'P 1'
_space_group_name_Hall 'P 1'
loop_
    _symmetry_equiv_pos_as_xyz
    x,y,z
loop_
    _atom_site_label
    _atom_site_type_symbol
    _atom_site_fract_x
    _atom_site_fract_y
    _atom_site_fract_z
    _atom_site_occupancy
    Cu1      Cu       0.81065    0.42414    0.75286    1.000
    N1       N        0.74800    0.41390    0.87510    1.000
    N2       N        0.77740    0.38190    0.83290    1.000
    N3       N        0.75530    0.32190    0.92900    1.000
    N4       N        0.84770    0.46850    0.68230    1.000
    O1       O        0.79760    0.35590    0.67320    1.000
    O2       O        0.72570    0.39480    0.59960    1.000
    O3       O        0.93320    0.43840    0.45550    1.000
    O4       O        0.99670    0.43880    0.38580    1.000
    O5       O        0.78460    0.29500    0.10430    1.000
    O6       O        0.84810    0.25640    0.06340    1.000
    C1       C        0.70360    0.39300    0.99210    1.000
    H1       H        0.69590    0.43560    0.98700    1.000
    H2       H        0.72140    0.38420    0.05040    1.000
    H3       H        0.67300    0.37000    0.97830    1.000
    C2       C        0.73520    0.37680    0.93170    1.000
    C3       C        0.78070    0.32610    0.86490    1.000
    C4       C        0.80890    0.27340    0.83920    1.000
    H4       H        0.83570    0.28820    0.81500    1.000
    H5       H        0.78640    0.24920    0.79690    1.000
    H6       H        0.82250    0.24910    0.88940    1.000
    C5       C        0.88100    0.45170    0.63720    1.000
    C6       C        0.89380    0.38850    0.61800    1.000
    H7       H        0.88020    0.37980    0.55780    1.000
    H8       H        0.87990    0.36080    0.65300    1.000
    H9       H        0.92970    0.38390    0.63070    1.000
    C7       C        0.75790    0.35610    0.61260    1.000
    C8       C        0.75460    0.29990    0.55490    1.000
    C9       C        0.71670    0.29380    0.48650    1.000
    H10      H        0.69250    0.32430    0.47540    1.000
    C10      C        0.78920    0.25660    0.57120    1.000
    H11      H        0.81640    0.25910    0.61860    1.000
    C11      C        0.83100    0.28690    0.11260    1.000
    C12      C        0.86160    0.31820    0.19130    1.000
    C13      C        0.84250    0.34060    0.25550    1.000
    H12      H        0.80850    0.33490    0.25350    1.000
    C14      C        0.91350    0.32320    0.19570    1.000
    H13      H        0.92840    0.30510    0.15480    1.000
    C15      C        0.95300    0.42260    0.39690    1.000
    C16      C        0.92120    0.38290    0.32800    1.000
    C17      C        0.87320    0.37340    0.32800    1.000
    H14      H        0.85960    0.38740    0.37320    1.000
    C18      C        0.94170    0.35750    0.26610    1.000
    H15      H        0.97600    0.36280    0.26990    1.000
    Cu2      Cu       0.31065    0.92414    0.75286    1.000
    N5       N        0.24800    0.91390    0.87510    1.000
    N6       N        0.27740    0.88190    0.83290    1.000
    N7       N        0.25530    0.82190    0.92900    1.000
    N8       N        0.34770    0.96850    0.68230    1.000
    O7       O        0.29760    0.85590    0.67320    1.000
    O8       O        0.22570    0.89480    0.59960    1.000
    O9       O        0.43320    0.93840    0.45550    1.000
    O10      O        0.49670    0.93880    0.38580    1.000
    O11      O        0.28460    0.79500    0.10430    1.000
    O12      O        0.34810    0.75640    0.06340    1.000
    C19      C        0.20360    0.89300    0.99210    1.000
    H16      H        0.19590    0.93560    0.98700    1.000
    H17      H        0.22140    0.88420    0.05040    1.000
    H18      H        0.17300    0.87000    0.97830    1.000
    C20      C        0.23520    0.87680    0.93170    1.000
    C21      C        0.28070    0.82610    0.86490    1.000
    C22      C        0.30890    0.77340    0.83920    1.000
    H19      H        0.33570    0.78820    0.81500    1.000
    H20      H        0.28640    0.74920    0.79690    1.000
    H21      H        0.32250    0.74910    0.88940    1.000
    C23      C        0.38100    0.95170    0.63720    1.000
    C24      C        0.39380    0.88850    0.61800    1.000
    H22      H        0.38020    0.87980    0.55780    1.000
    H23      H        0.37990    0.86080    0.65300    1.000
    H24      H        0.42970    0.88390    0.63070    1.000
    C25      C        0.25790    0.85610    0.61260    1.000
    C26      C        0.25460    0.79990    0.55490    1.000
    C27      C        0.21670    0.79380    0.48650    1.000
    H25      H        0.19250    0.82430    0.47540    1.000
    C28      C        0.28920    0.75660    0.57120    1.000
    H26      H        0.31640    0.75910    0.61860    1.000
    C29      C        0.33100    0.78690    0.11260    1.000
    C30      C        0.36160    0.81820    0.19130    1.000
    C31      C        0.34250    0.84060    0.25550    1.000
    H27      H        0.30850    0.83490    0.25350    1.000
    C32      C        0.41350    0.82320    0.19570    1.000
    H28      H        0.42840    0.80510    0.15480    1.000
    C33      C        0.45300    0.92260    0.39690    1.000
    C34      C        0.42120    0.88290    0.32800    1.000
    C35      C        0.37320    0.87340    0.32800    1.000
    H29      H        0.35960    0.88740    0.37320    1.000
    C36      C        0.44170    0.85750    0.26610    1.000
    H30      H        0.47600    0.86280    0.26990    1.000
    Cu3      Cu       0.18935    0.42414    0.24714    1.000
    N9       N        0.25200    0.41390    0.12490    1.000
    N10      N        0.22260    0.38190    0.16710    1.000
    N11      N        0.24470    0.32190    0.07100    1.000
    N12      N        0.15230    0.46850    0.31770    1.000
    O13      O        0.20240    0.35590    0.32680    1.000
    O14      O        0.27430    0.39480    0.40040    1.000
    O15      O        0.06680    0.43840    0.54450    1.000
    O16      O        0.00330    0.43880    0.61420    1.000
    O17      O        0.21540    0.29500    0.89570    1.000
    O18      O        0.15190    0.25640    0.93660    1.000
    C37      C        0.29640    0.39300    0.00790    1.000
    H31      H        0.30410    0.43560    0.01300    1.000
    H32      H        0.27860    0.38420    0.94960    1.000
    H33      H        0.32700    0.37000    0.02170    1.000
    C38      C        0.26480    0.37680    0.06830    1.000
    C39      C        0.21930    0.32610    0.13510    1.000
    C40      C        0.19110    0.27340    0.16080    1.000
    H34      H        0.16430    0.28820    0.18500    1.000
    H35      H        0.21360    0.24920    0.20310    1.000
    H36      H        0.17750    0.24910    0.11060    1.000
    C41      C        0.11900    0.45170    0.36280    1.000
    C42      C        0.10620    0.38850    0.38200    1.000
    H37      H        0.11980    0.37980    0.44220    1.000
    H38      H        0.12010    0.36080    0.34700    1.000
    H39      H        0.07030    0.38390    0.36930    1.000
    C43      C        0.24210    0.35610    0.38740    1.000
    C44      C        0.24540    0.29990    0.44510    1.000
    C45      C        0.28330    0.29380    0.51350    1.000
    H40      H        0.30750    0.32430    0.52460    1.000
    C46      C        0.21080    0.25660    0.42880    1.000
    H41      H        0.18360    0.25910    0.38140    1.000
    C47      C        0.16900    0.28690    0.88740    1.000
    C48      C        0.13840    0.31820    0.80870    1.000
    C49      C        0.15750    0.34060    0.74450    1.000
    H42      H        0.19150    0.33490    0.74650    1.000
    C50      C        0.08650    0.32320    0.80430    1.000
    H43      H        0.07160    0.30510    0.84520    1.000
    C51      C        0.04700    0.42260    0.60310    1.000
    C52      C        0.07880    0.38290    0.67200    1.000
    C53      C        0.12680    0.37340    0.67200    1.000
    H44      H        0.14040    0.38740    0.62680    1.000
    C54      C        0.05830    0.35750    0.73390    1.000
    H45      H        0.02400    0.36280    0.73010    1.000
    Cu4      Cu       0.68935    0.92414    0.24714    1.000
    N13      N        0.75200    0.91390    0.12490    1.000
    N14      N        0.72260    0.88190    0.16710    1.000
    N15      N        0.74470    0.82190    0.07100    1.000
    N16      N        0.65230    0.96850    0.31770    1.000
    O19      O        0.70240    0.85590    0.32680    1.000
    O20      O        0.77430    0.89480    0.40040    1.000
    O21      O        0.56680    0.93840    0.54450    1.000
    O22      O        0.50330    0.93880    0.61420    1.000
    O23      O        0.71540    0.79500    0.89570    1.000
    O24      O        0.65190    0.75640    0.93660    1.000
    C55      C        0.79640    0.89300    0.00790    1.000
    H46      H        0.80410    0.93560    0.01300    1.000
    H47      H        0.77860    0.88420    0.94960    1.000
    H48      H        0.82700    0.87000    0.02170    1.000
    C56      C        0.76480    0.87680    0.06830    1.000
    C57      C        0.71930    0.82610    0.13510    1.000
    C58      C        0.69110    0.77340    0.16080    1.000
    H49      H        0.66430    0.78820    0.18500    1.000
    H50      H        0.71360    0.74920    0.20310    1.000
    H51      H        0.67750    0.74910    0.11060    1.000
    C59      C        0.61900    0.95170    0.36280    1.000
    C60      C        0.60620    0.88850    0.38200    1.000
    H52      H        0.61980    0.87980    0.44220    1.000
    H53      H        0.62010    0.86080    0.34700    1.000
    H54      H        0.57030    0.88390    0.36930    1.000
    C61      C        0.74210    0.85610    0.38740    1.000
    C62      C        0.74540    0.79990    0.44510    1.000
    C63      C        0.78330    0.79380    0.51350    1.000
    H55      H        0.80750    0.82430    0.52460    1.000
    C64      C        0.71080    0.75660    0.42880    1.000
    H56      H        0.68360    0.75910    0.38140    1.000
    C65      C        0.66900    0.78690    0.88740    1.000
    C66      C        0.63840    0.81820    0.80870    1.000
    C67      C        0.65750    0.84060    0.74450    1.000
    H57      H        0.69150    0.83490    0.74650    1.000
    C68      C        0.58650    0.82320    0.80430    1.000
    H58      H        0.57160    0.80510    0.84520    1.000
    C69      C        0.54700    0.92260    0.60310    1.000
    C70      C        0.57880    0.88290    0.67200    1.000
    C71      C        0.62680    0.87340    0.67200    1.000
    H59      H        0.64040    0.88740    0.62680    1.000
    C72      C        0.55830    0.85750    0.73390    1.000
    H60      H        0.52400    0.86280    0.73010    1.000
    Cu5      Cu       0.18935    0.57586    0.24714    1.000
    N17      N        0.25200    0.58610    0.12490    1.000
    N18      N        0.22260    0.61810    0.16710    1.000
    N19      N        0.24470    0.67810    0.07100    1.000
    N20      N        0.15230    0.53150    0.31770    1.000
    O25      O        0.20240    0.64410    0.32680    1.000
    O26      O        0.27430    0.60520    0.40040    1.000
    O27      O        0.06680    0.56160    0.54450    1.000
    O28      O        0.00330    0.56120    0.61420    1.000
    O29      O        0.21540    0.70500    0.89570    1.000
    O30      O        0.15190    0.74360    0.93660    1.000
    C73      C        0.29640    0.60700    0.00790    1.000
    H61      H        0.30410    0.56440    0.01300    1.000
    H62      H        0.27860    0.61580    0.94960    1.000
    H63      H        0.32700    0.63000    0.02170    1.000
    C74      C        0.26480    0.62320    0.06830    1.000
    C75      C        0.21930    0.67390    0.13510    1.000
    C76      C        0.19110    0.72660    0.16080    1.000
    H64      H        0.16430    0.71180    0.18500    1.000
    H65      H        0.21360    0.75080    0.20310    1.000
    H66      H        0.17750    0.75090    0.11060    1.000
    C77      C        0.11900    0.54830    0.36280    1.000
    C78      C        0.10620    0.61150    0.38200    1.000
    H67      H        0.11980    0.62020    0.44220    1.000
    H68      H        0.12010    0.63920    0.34700    1.000
    H69      H        0.07030    0.61610    0.36930    1.000
    C79      C        0.24210    0.64390    0.38740    1.000
    C80      C        0.24540    0.70010    0.44510    1.000
    C81      C        0.28330    0.70620    0.51350    1.000
    H70      H        0.30750    0.67570    0.52460    1.000
    C82      C        0.21080    0.74340    0.42880    1.000
    H71      H        0.18360    0.74090    0.38140    1.000
    C83      C        0.16900    0.71310    0.88740    1.000
    C84      C        0.13840    0.68180    0.80870    1.000
    C85      C        0.15750    0.65940    0.74450    1.000
    H72      H        0.19150    0.66510    0.74650    1.000
    C86      C        0.08650    0.67680    0.80430    1.000
    H73      H        0.07160    0.69490    0.84520    1.000
    C87      C        0.04700    0.57740    0.60310    1.000
    C88      C        0.07880    0.61710    0.67200    1.000
    C89      C        0.12680    0.62660    0.67200    1.000
    H74      H        0.14040    0.61260    0.62680    1.000
    C90      C        0.05830    0.64250    0.73390    1.000
    H75      H        0.02400    0.63720    0.73010    1.000
    Cu6      Cu       0.68935    0.07586    0.24714    1.000
    N21      N        0.75200    0.08610    0.12490    1.000
    N22      N        0.72260    0.11810    0.16710    1.000
    N23      N        0.74470    0.17810    0.07100    1.000
    N24      N        0.65230    0.03150    0.31770    1.000
    O31      O        0.70240    0.14410    0.32680    1.000
    O32      O        0.77430    0.10520    0.40040    1.000
    O33      O        0.56680    0.06160    0.54450    1.000
    O34      O        0.50330    0.06120    0.61420    1.000
    O35      O        0.71540    0.20500    0.89570    1.000
    O36      O        0.65190    0.24360    0.93660    1.000
    C91      C        0.79640    0.10700    0.00790    1.000
    H76      H        0.80410    0.06440    0.01300    1.000
    H77      H        0.77860    0.11580    0.94960    1.000
    H78      H        0.82700    0.13000    0.02170    1.000
    C92      C        0.76480    0.12320    0.06830    1.000
    C93      C        0.71930    0.17390    0.13510    1.000
    C94      C        0.69110    0.22660    0.16080    1.000
    H79      H        0.66430    0.21180    0.18500    1.000
    H80      H        0.71360    0.25080    0.20310    1.000
    H81      H        0.67750    0.25090    0.11060    1.000
    C95      C        0.61900    0.04830    0.36280    1.000
    C96      C        0.60620    0.11150    0.38200    1.000
    H82      H        0.61980    0.12020    0.44220    1.000
    H83      H        0.62010    0.13920    0.34700    1.000
    H84      H        0.57030    0.11610    0.36930    1.000
    C97      C        0.74210    0.14390    0.38740    1.000
    C98      C        0.74540    0.20010    0.44510    1.000
    C99      C        0.78330    0.20620    0.51350    1.000
    H85      H        0.80750    0.17570    0.52460    1.000
    C100     C        0.71080    0.24340    0.42880    1.000
    H86      H        0.68360    0.24090    0.38140    1.000
    C101     C        0.66900    0.21310    0.88740    1.000
    C102     C        0.63840    0.18180    0.80870    1.000
    C103     C        0.65750    0.15940    0.74450    1.000
    H87      H        0.69150    0.16510    0.74650    1.000
    C104     C        0.58650    0.17680    0.80430    1.000
    H88      H        0.57160    0.19490    0.84520    1.000
    C105     C        0.54700    0.07740    0.60310    1.000
    C106     C        0.57880    0.11710    0.67200    1.000
    C107     C        0.62680    0.12660    0.67200    1.000
    H89      H        0.64040    0.11260    0.62680    1.000
    C108     C        0.55830    0.14250    0.73390    1.000
    H90      H        0.52400    0.13720    0.73010    1.000
    Cu7      Cu       0.81065    0.57586    0.75286    1.000
    N25      N        0.74800    0.58610    0.87510    1.000
    N26      N        0.77740    0.61810    0.83290    1.000
    N27      N        0.75530    0.67810    0.92900    1.000
    N28      N        0.84770    0.53150    0.68230    1.000
    O37      O        0.79760    0.64410    0.67320    1.000
    O38      O        0.72570    0.60520    0.59960    1.000
    O39      O        0.93320    0.56160    0.45550    1.000
    O40      O        0.99670    0.56120    0.38580    1.000
    O41      O        0.78460    0.70500    0.10430    1.000
    O42      O        0.84810    0.74360    0.06340    1.000
    C109     C        0.70360    0.60700    0.99210    1.000
    H91      H        0.69590    0.56440    0.98700    1.000
    H92      H        0.72140    0.61580    0.05040    1.000
    H93      H        0.67300    0.63000    0.97830    1.000
    C110     C        0.73520    0.62320    0.93170    1.000
    C111     C        0.78070    0.67390    0.86490    1.000
    C112     C        0.80890    0.72660    0.83920    1.000
    H94      H        0.83570    0.71180    0.81500    1.000
    H95      H        0.78640    0.75080    0.79690    1.000
    H96      H        0.82250    0.75090    0.88940    1.000
    C113     C        0.88100    0.54830    0.63720    1.000
    C114     C        0.89380    0.61150    0.61800    1.000
    H97      H        0.88020    0.62020    0.55780    1.000
    H98      H        0.87990    0.63920    0.65300    1.000
    H99      H        0.92970    0.61610    0.63070    1.000
    C115     C        0.75790    0.64390    0.61260    1.000
    C116     C        0.75460    0.70010    0.55490    1.000
    C117     C        0.71670    0.70620    0.48650    1.000
    H100     H        0.69250    0.67570    0.47540    1.000
    C118     C        0.78920    0.74340    0.57120    1.000
    H101     H        0.81640    0.74090    0.61860    1.000
    C119     C        0.83100    0.71310    0.11260    1.000
    C120     C        0.86160    0.68180    0.19130    1.000
    C121     C        0.84250    0.65940    0.25550    1.000
    H102     H        0.80850    0.66510    0.25350    1.000
    C122     C        0.91350    0.67680    0.19570    1.000
    H103     H        0.92840    0.69490    0.15480    1.000
    C123     C        0.95300    0.57740    0.39690    1.000
    C124     C        0.92120    0.61710    0.32800    1.000
    C125     C        0.87320    0.62660    0.32800    1.000
    H104     H        0.85960    0.61260    0.37320    1.000
    C126     C        0.94170    0.64250    0.26610    1.000
    H105     H        0.97600    0.63720    0.26990    1.000
    Cu8      Cu       0.31065    0.07586    0.75286    1.000
    N29      N        0.24800    0.08610    0.87510    1.000
    N30      N        0.27740    0.11810    0.83290    1.000
    N31      N        0.25530    0.17810    0.92900    1.000
    N32      N        0.34770    0.03150    0.68230    1.000
    O43      O        0.29760    0.14410    0.67320    1.000
    O44      O        0.22570    0.10520    0.59960    1.000
    O45      O        0.43320    0.06160    0.45550    1.000
    O46      O        0.49670    0.06120    0.38580    1.000
    O47      O        0.28460    0.20500    0.10430    1.000
    O48      O        0.34810    0.24360    0.06340    1.000
    C127     C        0.20360    0.10700    0.99210    1.000
    H106     H        0.19590    0.06440    0.98700    1.000
    H107     H        0.22140    0.11580    0.05040    1.000
    H108     H        0.17300    0.13000    0.97830    1.000
    C128     C        0.23520    0.12320    0.93170    1.000
    C129     C        0.28070    0.17390    0.86490    1.000
    C130     C        0.30890    0.22660    0.83920    1.000
    H109     H        0.33570    0.21180    0.81500    1.000
    H110     H        0.28640    0.25080    0.79690    1.000
    H111     H        0.32250    0.25090    0.88940    1.000
    C131     C        0.38100    0.04830    0.63720    1.000
    C132     C        0.39380    0.11150    0.61800    1.000
    H112     H        0.38020    0.12020    0.55780    1.000
    H113     H        0.37990    0.13920    0.65300    1.000
    H114     H        0.42970    0.11610    0.63070    1.000
    C133     C        0.25790    0.14390    0.61260    1.000
    C134     C        0.25460    0.20010    0.55490    1.000
    C135     C        0.21670    0.20620    0.48650    1.000
    H115     H        0.19250    0.17570    0.47540    1.000
    C136     C        0.28920    0.24340    0.57120    1.000
    H116     H        0.31640    0.24090    0.61860    1.000
    C137     C        0.33100    0.21310    0.11260    1.000
    C138     C        0.36160    0.18180    0.19130    1.000
    C139     C        0.34250    0.15940    0.25550    1.000
    H117     H        0.30850    0.16510    0.25350    1.000
    C140     C        0.41350    0.17680    0.19570    1.000
    H118     H        0.42840    0.19490    0.15480    1.000
    C141     C        0.45300    0.07740    0.39690    1.000
    C142     C        0.42120    0.11710    0.32800    1.000
    C143     C        0.37320    0.12660    0.32800    1.000
    H119     H        0.35960    0.11260    0.37320    1.000
    C144     C        0.44170    0.14250    0.26610    1.000
    H120     H        0.47600    0.13720    0.26990    1.000
    Cu9      Cu       0.73927    0.50000    0.84891    1.000
    Cu10     Cu       0.96182    0.50000    0.54203    1.000
    N33      N        0.90290    0.50000    0.60620    1.000
    O49      O        0.80630    0.50000    0.81830    1.000
    H121     H        0.83330    0.50000    0.86300    1.000
    Cu11     Cu       0.23927    0.00000    0.84891    1.000
    Cu12     Cu       0.46182    0.00000    0.54203    1.000
    N34      N        0.40290    0.00000    0.60620    1.000
    O50      O        0.30630    0.00000    0.81830    1.000
    H122     H        0.33330    0.00000    0.86300    1.000
    Cu13     Cu       0.26073    0.50000    0.15109    1.000
    Cu14     Cu       0.03818    0.50000    0.45797    1.000
    N35      N        0.09710    0.50000    0.39380    1.000
    O51      O        0.19370    0.50000    0.18170    1.000
    H123     H        0.16670    0.50000    0.13700    1.000
    Cu15     Cu       0.76073    0.00000    0.15109    1.000
    Cu16     Cu       0.53818    0.00000    0.45797    1.000
    N36      N        0.59710    0.00000    0.39380    1.000
    O52      O        0.69370    0.00000    0.18170    1.000
    H124     H        0.66670    0.00000    0.13700    1.000
    Cu17     Cu       0.75000    0.25000    0.00000    1.000
    Cu18     Cu       0.25000    0.25000    0.00000    1.000
    Cu19     Cu       0.25000    0.75000    0.00000    1.000
    Cu20     Cu       0.75000    0.75000    0.00000    1.000
