# CIF file generated by openbabel 3.1.0, see https://openbabel.org
data_I
_chemical_name_common 'image0'
_cell_length_a 21.5909
_cell_length_b 24.0263
_cell_length_c 31.1146
_cell_angle_alpha 90
_cell_angle_beta 105.794
_cell_angle_gamma 90
_space_group_name_H-M_alt 'P 1'
_space_group_name_Hall 'P 1'
loop_
    _symmetry_equiv_pos_as_xyz
    x,y,z
loop_
    _atom_site_label
    _atom_site_type_symbol
    _atom_site_fract_x
    _atom_site_fract_y
    _atom_site_fract_z
    _atom_site_occupancy
    Eu1      Eu       0.91378    0.22919    0.19866    1.000
    Eu2      Eu       0.82479    0.69043    0.58727    1.000
    C1       C        0.82430    0.30742    0.53066    1.000
    C2       C        0.81670    0.33557    0.48909    1.000
    H1       H        0.80770    0.37400    0.48350    1.000
    C3       C        0.82470    0.29720    0.45935    1.000
    H2       H        0.82320    0.30370    0.42900    1.000
    C4       C        0.83590    0.24463    0.48235    1.000
    C5       C        0.85400    0.19467    0.46511    1.000
    C6       C        0.86050    0.14305    0.48629    1.000
    C7       C        0.87640    0.09158    0.46904    1.000
    H3       H        0.88880    0.08680    0.44220    1.000
    C8       C        0.87070    0.05100    0.49745    1.000
    H4       H        0.87840    0.01250    0.49440    1.000
    C9       C        0.85100    0.07676    0.53335    1.000
    C10      C        0.83570    0.04920    0.56858    1.000
    C11      C        0.81740    0.07494    0.60352    1.000
    C12      C        0.79800    0.04562    0.63812    1.000
    H5       H        0.79260    0.00650    0.64000    1.000
    C13      C        0.78890    0.08416    0.66740    1.000
    H6       H        0.77570    0.07730    0.69370    1.000
    C14      C        0.80293    0.13783    0.65126    1.000
    C15      C        0.80862    0.18802    0.67522    1.000
    C16      C        0.82617    0.23876    0.65964    1.000
    C17      C        0.83900    0.28915    0.68435    1.000
    H7       H        0.84110    0.29360    0.71510    1.000
    C18      C        0.84770    0.32974    0.65630    1.000
    H8       H        0.85850    0.36750    0.66380    1.000
    C19      C        0.83760    0.30486    0.61312    1.000
    C20      C        0.83080    0.33331    0.57280    1.000
    N1       N        0.83239    0.25076    0.52513    1.000
    N2       N        0.84687    0.13319    0.52627    1.000
    N3       N        0.81866    0.13067    0.61138    1.000
    N4       N        0.82911    0.24850    0.61722    1.000
    C21      C        0.87110    0.19846    0.42151    1.000
    C22      C        0.82350    0.20171    0.38138    1.000
    H9       H        0.77940    0.19930    0.38100    1.000
    C23      C        0.84040    0.20847    0.34187    1.000
    H10      H        0.80770    0.21120    0.31450    1.000
    C24      C        0.90440    0.21134    0.34179    1.000
    C25      C        0.95140    0.20530    0.38118    1.000
    H11      H        0.99540    0.20540    0.38140    1.000
    C26      C        0.93400    0.19910    0.42118    1.000
    H12      H        0.96670    0.19530    0.44850    1.000
    C27      C        0.92160    0.22126    0.29960    1.000
    O1       O        0.87734    0.22344    0.26352    1.000
    O2       O        0.98061    0.22695    0.30058    1.000
    C28      C        0.83850    0.98697    0.57052    1.000
    C29      C        0.89320    0.96035    0.59662    1.000
    H13      H        0.93120    0.98110    0.60930    1.000
    C30      C        0.89200    0.90382    0.60401    1.000
    H14      H        0.92900    0.88610    0.62260    1.000
    C31      C        0.83760    0.87256    0.58469    1.000
    C32      C        0.78350    0.89889    0.55687    1.000
    H15      H        0.74640    0.87770    0.54280    1.000
    C33      C        0.78420    0.95531    0.54988    1.000
    H16      H        0.74740    0.97300    0.53090    1.000
    C34      C        0.83470    0.81209    0.59256    1.000
    O3       O        0.78593    0.78516    0.57285    1.000
    O4       O        0.88297    0.78853    0.61986    1.000
    C35      C        0.78970    0.18675    0.71798    1.000
    C36      C        0.72630    0.17523    0.71755    1.000
    H17      H        0.69590    0.16610    0.69010    1.000
    C37      C        0.70690    0.17694    0.75646    1.000
    H18      H        0.66350    0.16920    0.75570    1.000
    C38      C        0.75120    0.19002    0.79656    1.000
    C39      C        0.81500    0.19834    0.79797    1.000
    H19      H        0.84570    0.20480    0.82580    1.000
    C40      C        0.83510    0.19726    0.75854    1.000
    H20      H        0.87890    0.20360    0.75960    1.000
    C41      C        0.72950    0.19682    0.83813    1.000
    O5       O        0.66933    0.20530    0.83369    1.000
    O6       O        0.76844    0.19433    0.87614    1.000
    C42      C        0.83100    0.39537    0.57436    1.000
    C43      C        0.87680    0.42612    0.55984    1.000
    H21      H        0.90750    0.40730    0.54830    1.000
    C44      C        0.87760    0.48342    0.56227    1.000
    H22      H        0.90860    0.50400    0.55230    1.000
    C45      C        0.83260    0.51134    0.57935    1.000
    C46      C        0.78720    0.48084    0.59355    1.000
    H23      H        0.75650    0.49950    0.60510    1.000
    C47      C        0.78660    0.42312    0.59086    1.000
    H24      H        0.75520    0.40260    0.60050    1.000
    C48      C        0.83190    0.57345    0.58190    1.000
    O7       O        0.80670    0.59678    0.60965    1.000
    O8       O        0.85550    0.60282    0.55580    1.000
    Cu1      Cu       0.83170    0.19023    0.56940    1.000
    C49      C        0.99801    0.84578    0.28976    1.000
    C50      C        0.99190    0.87259    0.32941    1.000
    H25      H        0.99250    0.91160    0.33460    1.000
    C51      C        0.98500    0.83232    0.35824    1.000
    H26      H        0.97950    0.83790    0.38720    1.000
    C52      C        0.98750    0.77982    0.33713    1.000
    C53      C        0.97904    0.72818    0.35545    1.000
    C54      C        0.98350    0.67601    0.33582    1.000
    C55      C        0.98050    0.62308    0.35722    1.000
    H27      H        0.97490    0.61730    0.38610    1.000
    C56      C        0.98740    0.58314    0.32792    1.000
    H28      H        0.98790    0.54410    0.33290    1.000
    C57      C        0.99386    0.60993    0.28853    1.000
    N5       N        0.99645    0.78881    0.29539    1.000
    N6       N        0.99138    0.66706    0.29398    1.000
    C58      C        0.05030    0.96544    0.27799    1.000
    H29      H        0.08530    0.94620    0.29740    1.000
    C59      C        0.05000    0.02291    0.27802    1.000
    H30      H        0.08460    0.04250    0.29760    1.000
    O9       O        0.95159    0.13924    0.22502    1.000
    C60      C        0.96340    0.72670    0.39944    1.000
    C61      C        0.90120    0.72360    0.40207    1.000
    H31      H        0.86740    0.72490    0.37510    1.000
    C62      C        0.88550    0.71890    0.44152    1.000
    H32      H        0.84170    0.71710    0.44190    1.000
    C63      C        0.93400    0.71670    0.48085    1.000
    C64      C        0.99560    0.71970    0.47871    1.000
    H33      H        0.02960    0.71760    0.50550    1.000
    C65      C        0.00980    0.72570    0.43860    1.000
    H34      H        0.05350    0.72930    0.43840    1.000
    C66      C        0.92040    0.71030    0.52710    1.000
    O10      O        0.96660    0.69590    0.55900    1.000
    O11      O        0.86710    0.71874    0.52955    1.000
    C67      C        0.05280    0.49174    0.27545    1.000
    H35      H        0.08910    0.51140    0.29300    1.000
    C68      C        0.05280    0.43344    0.27537    1.000
    H36      H        0.08920    0.41380    0.29280    1.000
    O12      O        0.04991    0.31737    0.27255    1.000
    O13      O        0.73100    0.66280    0.53610    1.000
    O14      O        0.72920    0.30510    0.02210    1.000
    Eu3      Eu       0.41378    0.72919    0.19866    1.000
    Eu4      Eu       0.32479    0.19043    0.58727    1.000
    C69      C        0.32430    0.80742    0.53066    1.000
    C70      C        0.31670    0.83557    0.48909    1.000
    H37      H        0.30770    0.87400    0.48350    1.000
    C71      C        0.32470    0.79720    0.45935    1.000
    H38      H        0.32320    0.80370    0.42900    1.000
    C72      C        0.33590    0.74463    0.48235    1.000
    C73      C        0.35400    0.69467    0.46511    1.000
    C74      C        0.36050    0.64305    0.48629    1.000
    C75      C        0.37640    0.59158    0.46904    1.000
    H39      H        0.38880    0.58680    0.44220    1.000
    C76      C        0.37070    0.55100    0.49745    1.000
    H40      H        0.37840    0.51250    0.49440    1.000
    C77      C        0.35100    0.57676    0.53335    1.000
    C78      C        0.33570    0.54920    0.56858    1.000
    C79      C        0.31740    0.57494    0.60352    1.000
    C80      C        0.29800    0.54562    0.63812    1.000
    H41      H        0.29260    0.50650    0.64000    1.000
    C81      C        0.28890    0.58416    0.66740    1.000
    H42      H        0.27570    0.57730    0.69370    1.000
    C82      C        0.30293    0.63783    0.65126    1.000
    C83      C        0.30862    0.68802    0.67522    1.000
    C84      C        0.32617    0.73876    0.65964    1.000
    C85      C        0.33900    0.78915    0.68435    1.000
    H43      H        0.34110    0.79360    0.71510    1.000
    C86      C        0.34770    0.82974    0.65630    1.000
    H44      H        0.35850    0.86750    0.66380    1.000
    C87      C        0.33760    0.80486    0.61312    1.000
    C88      C        0.33080    0.83331    0.57280    1.000
    N7       N        0.33239    0.75076    0.52513    1.000
    N8       N        0.34687    0.63319    0.52627    1.000
    N9       N        0.31866    0.63067    0.61138    1.000
    N10      N        0.32911    0.74850    0.61722    1.000
    C89      C        0.37110    0.69846    0.42151    1.000
    C90      C        0.32350    0.70171    0.38138    1.000
    H45      H        0.27940    0.69930    0.38100    1.000
    C91      C        0.34040    0.70847    0.34187    1.000
    H46      H        0.30770    0.71120    0.31450    1.000
    C92      C        0.40440    0.71134    0.34179    1.000
    C93      C        0.45140    0.70530    0.38118    1.000
    H47      H        0.49540    0.70540    0.38140    1.000
    C94      C        0.43400    0.69910    0.42118    1.000
    H48      H        0.46670    0.69530    0.44850    1.000
    C95      C        0.42160    0.72126    0.29960    1.000
    O15      O        0.37734    0.72344    0.26352    1.000
    O16      O        0.48061    0.72695    0.30058    1.000
    C96      C        0.33850    0.48697    0.57052    1.000
    C97      C        0.39320    0.46035    0.59662    1.000
    H49      H        0.43120    0.48110    0.60930    1.000
    C98      C        0.39200    0.40382    0.60401    1.000
    H50      H        0.42900    0.38610    0.62260    1.000
    C99      C        0.33760    0.37256    0.58469    1.000
    C100     C        0.28350    0.39889    0.55687    1.000
    H51      H        0.24640    0.37770    0.54280    1.000
    C101     C        0.28420    0.45531    0.54988    1.000
    H52      H        0.24740    0.47300    0.53090    1.000
    C102     C        0.33470    0.31209    0.59256    1.000
    O17      O        0.28593    0.28516    0.57285    1.000
    O18      O        0.38297    0.28853    0.61986    1.000
    C103     C        0.28970    0.68675    0.71798    1.000
    C104     C        0.22630    0.67523    0.71755    1.000
    H53      H        0.19590    0.66610    0.69010    1.000
    C105     C        0.20690    0.67694    0.75646    1.000
    H54      H        0.16350    0.66920    0.75570    1.000
    C106     C        0.25120    0.69002    0.79656    1.000
    C107     C        0.31500    0.69834    0.79797    1.000
    H55      H        0.34570    0.70480    0.82580    1.000
    C108     C        0.33510    0.69726    0.75854    1.000
    H56      H        0.37890    0.70360    0.75960    1.000
    C109     C        0.22950    0.69682    0.83813    1.000
    O19      O        0.16933    0.70530    0.83369    1.000
    O20      O        0.26844    0.69433    0.87614    1.000
    C110     C        0.33100    0.89537    0.57436    1.000
    C111     C        0.37680    0.92612    0.55984    1.000
    H57      H        0.40750    0.90730    0.54830    1.000
    C112     C        0.37760    0.98342    0.56227    1.000
    H58      H        0.40860    0.00400    0.55230    1.000
    C113     C        0.33260    0.01134    0.57935    1.000
    C114     C        0.28720    0.98084    0.59355    1.000
    H59      H        0.25650    0.99950    0.60510    1.000
    C115     C        0.28660    0.92312    0.59086    1.000
    H60      H        0.25520    0.90260    0.60050    1.000
    C116     C        0.33190    0.07345    0.58190    1.000
    O21      O        0.30670    0.09678    0.60965    1.000
    O22      O        0.35550    0.10282    0.55580    1.000
    Cu2      Cu       0.33170    0.69023    0.56940    1.000
    C117     C        0.49801    0.34578    0.28976    1.000
    C118     C        0.49190    0.37259    0.32941    1.000
    H61      H        0.49250    0.41160    0.33460    1.000
    C119     C        0.48500    0.33232    0.35824    1.000
    H62      H        0.47950    0.33790    0.38720    1.000
    C120     C        0.48750    0.27982    0.33713    1.000
    C121     C        0.47904    0.22818    0.35545    1.000
    C122     C        0.48350    0.17601    0.33582    1.000
    C123     C        0.48050    0.12308    0.35722    1.000
    H63      H        0.47490    0.11730    0.38610    1.000
    C124     C        0.48740    0.08314    0.32792    1.000
    H64      H        0.48790    0.04410    0.33290    1.000
    C125     C        0.49386    0.10993    0.28853    1.000
    N11      N        0.49645    0.28881    0.29539    1.000
    N12      N        0.49138    0.16706    0.29398    1.000
    C126     C        0.55030    0.46544    0.27799    1.000
    H65      H        0.58530    0.44620    0.29740    1.000
    C127     C        0.55000    0.52291    0.27802    1.000
    H66      H        0.58460    0.54250    0.29760    1.000
    O23      O        0.45159    0.63924    0.22502    1.000
    C128     C        0.46340    0.22670    0.39944    1.000
    C129     C        0.40120    0.22360    0.40207    1.000
    H67      H        0.36740    0.22490    0.37510    1.000
    C130     C        0.38550    0.21890    0.44152    1.000
    H68      H        0.34170    0.21710    0.44190    1.000
    C131     C        0.43400    0.21670    0.48085    1.000
    C132     C        0.49560    0.21970    0.47871    1.000
    H69      H        0.52960    0.21760    0.50550    1.000
    C133     C        0.50980    0.22570    0.43860    1.000
    H70      H        0.55350    0.22930    0.43840    1.000
    C134     C        0.42040    0.21030    0.52710    1.000
    O24      O        0.46660    0.19590    0.55900    1.000
    O25      O        0.36710    0.21874    0.52955    1.000
    C135     C        0.55280    0.99174    0.27545    1.000
    H71      H        0.58910    0.01140    0.29300    1.000
    C136     C        0.55280    0.93344    0.27537    1.000
    H72      H        0.58920    0.91380    0.29280    1.000
    O26      O        0.54991    0.81737    0.27255    1.000
    O27      O        0.23100    0.16280    0.53610    1.000
    O28      O        0.22920    0.80510    0.02210    1.000
    Eu5      Eu       0.08622    0.22919    0.30134    1.000
    Eu6      Eu       0.17521    0.69043    0.91273    1.000
    C137     C        0.17570    0.30742    0.96934    1.000
    C138     C        0.18330    0.33557    0.01091    1.000
    H73      H        0.19230    0.37400    0.01650    1.000
    C139     C        0.17530    0.29720    0.04065    1.000
    H74      H        0.17680    0.30370    0.07100    1.000
    C140     C        0.16410    0.24463    0.01765    1.000
    C141     C        0.14600    0.19467    0.03489    1.000
    C142     C        0.13950    0.14305    0.01371    1.000
    C143     C        0.12360    0.09158    0.03096    1.000
    H75      H        0.11120    0.08680    0.05780    1.000
    C144     C        0.12930    0.05100    0.00255    1.000
    H76      H        0.12160    0.01250    0.00560    1.000
    C145     C        0.14900    0.07676    0.96665    1.000
    C146     C        0.16430    0.04920    0.93142    1.000
    C147     C        0.18260    0.07494    0.89648    1.000
    C148     C        0.20200    0.04562    0.86188    1.000
    H77      H        0.20740    0.00650    0.86000    1.000
    C149     C        0.21110    0.08416    0.83260    1.000
    H78      H        0.22430    0.07730    0.80630    1.000
    C150     C        0.19707    0.13783    0.84874    1.000
    C151     C        0.19138    0.18802    0.82478    1.000
    C152     C        0.17383    0.23876    0.84036    1.000
    C153     C        0.16100    0.28915    0.81565    1.000
    H79      H        0.15890    0.29360    0.78490    1.000
    C154     C        0.15230    0.32974    0.84370    1.000
    H80      H        0.14150    0.36750    0.83620    1.000
    C155     C        0.16240    0.30486    0.88688    1.000
    C156     C        0.16920    0.33331    0.92720    1.000
    N13      N        0.16761    0.25076    0.97487    1.000
    N14      N        0.15313    0.13319    0.97373    1.000
    N15      N        0.18134    0.13067    0.88862    1.000
    N16      N        0.17089    0.24850    0.88278    1.000
    C157     C        0.12890    0.19846    0.07849    1.000
    C158     C        0.17650    0.20171    0.11862    1.000
    H81      H        0.22060    0.19930    0.11900    1.000
    C159     C        0.15960    0.20847    0.15813    1.000
    H82      H        0.19230    0.21120    0.18550    1.000
    C160     C        0.09560    0.21134    0.15821    1.000
    C161     C        0.04860    0.20530    0.11882    1.000
    H83      H        0.00460    0.20540    0.11860    1.000
    C162     C        0.06600    0.19910    0.07882    1.000
    H84      H        0.03330    0.19530    0.05150    1.000
    C163     C        0.07840    0.22126    0.20040    1.000
    O29      O        0.12266    0.22344    0.23648    1.000
    O30      O        0.01939    0.22695    0.19942    1.000
    C164     C        0.16150    0.98697    0.92948    1.000
    C165     C        0.10680    0.96035    0.90338    1.000
    H85      H        0.06880    0.98110    0.89070    1.000
    C166     C        0.10800    0.90382    0.89599    1.000
    H86      H        0.07100    0.88610    0.87740    1.000
    C167     C        0.16240    0.87256    0.91531    1.000
    C168     C        0.21650    0.89889    0.94313    1.000
    H87      H        0.25360    0.87770    0.95720    1.000
    C169     C        0.21580    0.95531    0.95012    1.000
    H88      H        0.25260    0.97300    0.96910    1.000
    C170     C        0.16530    0.81209    0.90744    1.000
    O31      O        0.21407    0.78516    0.92715    1.000
    O32      O        0.11703    0.78853    0.88014    1.000
    C171     C        0.21030    0.18675    0.78202    1.000
    C172     C        0.27370    0.17523    0.78245    1.000
    H89      H        0.30410    0.16610    0.80990    1.000
    C173     C        0.29310    0.17694    0.74354    1.000
    H90      H        0.33650    0.16920    0.74430    1.000
    C174     C        0.24880    0.19002    0.70344    1.000
    C175     C        0.18500    0.19834    0.70203    1.000
    H91      H        0.15430    0.20480    0.67420    1.000
    C176     C        0.16490    0.19726    0.74146    1.000
    H92      H        0.12110    0.20360    0.74040    1.000
    C177     C        0.27050    0.19682    0.66187    1.000
    O33      O        0.33067    0.20530    0.66631    1.000
    O34      O        0.23156    0.19433    0.62386    1.000
    C178     C        0.16900    0.39537    0.92564    1.000
    C179     C        0.12320    0.42612    0.94016    1.000
    H93      H        0.09250    0.40730    0.95170    1.000
    C180     C        0.12240    0.48342    0.93773    1.000
    H94      H        0.09140    0.50400    0.94770    1.000
    C181     C        0.16740    0.51134    0.92065    1.000
    C182     C        0.21280    0.48084    0.90645    1.000
    H95      H        0.24350    0.49950    0.89490    1.000
    C183     C        0.21340    0.42312    0.90914    1.000
    H96      H        0.24480    0.40260    0.89950    1.000
    C184     C        0.16810    0.57345    0.91810    1.000
    O35      O        0.19330    0.59678    0.89035    1.000
    O36      O        0.14450    0.60282    0.94420    1.000
    Cu3      Cu       0.16830    0.19023    0.93060    1.000
    C185     C        0.00199    0.84578    0.21024    1.000
    C186     C        0.00810    0.87259    0.17059    1.000
    H97      H        0.00750    0.91160    0.16540    1.000
    C187     C        0.01500    0.83232    0.14176    1.000
    H98      H        0.02050    0.83790    0.11280    1.000
    C188     C        0.01250    0.77982    0.16287    1.000
    C189     C        0.02096    0.72818    0.14455    1.000
    C190     C        0.01650    0.67601    0.16418    1.000
    C191     C        0.01950    0.62308    0.14278    1.000
    H99      H        0.02510    0.61730    0.11390    1.000
    C192     C        0.01260    0.58314    0.17208    1.000
    H100     H        0.01210    0.54410    0.16710    1.000
    C193     C        0.00614    0.60993    0.21147    1.000
    N17      N        0.00355    0.78881    0.20461    1.000
    N18      N        0.00862    0.66706    0.20602    1.000
    C194     C        0.94970    0.96544    0.22201    1.000
    H101     H        0.91470    0.94620    0.20260    1.000
    C195     C        0.95000    0.02291    0.22198    1.000
    H102     H        0.91540    0.04250    0.20240    1.000
    O37      O        0.04841    0.13924    0.27498    1.000
    C196     C        0.03660    0.72670    0.10056    1.000
    C197     C        0.09880    0.72360    0.09793    1.000
    H103     H        0.13260    0.72490    0.12490    1.000
    C198     C        0.11450    0.71890    0.05848    1.000
    H104     H        0.15830    0.71710    0.05810    1.000
    C199     C        0.06600    0.71670    0.01915    1.000
    C200     C        0.00440    0.71970    0.02129    1.000
    H105     H        0.97040    0.71760    0.99450    1.000
    C201     C        0.99020    0.72570    0.06140    1.000
    H106     H        0.94650    0.72930    0.06160    1.000
    C202     C        0.07960    0.71030    0.97290    1.000
    O38      O        0.03340    0.69590    0.94100    1.000
    O39      O        0.13290    0.71874    0.97045    1.000
    C203     C        0.94720    0.49174    0.22455    1.000
    H107     H        0.91090    0.51140    0.20700    1.000
    C204     C        0.94720    0.43344    0.22463    1.000
    H108     H        0.91080    0.41380    0.20720    1.000
    O40      O        0.95009    0.31737    0.22745    1.000
    O41      O        0.26900    0.66280    0.96390    1.000
    O42      O        0.27080    0.30510    0.47790    1.000
    Eu7      Eu       0.58622    0.72919    0.30134    1.000
    Eu8      Eu       0.67521    0.19043    0.91273    1.000
    C205     C        0.67570    0.80742    0.96934    1.000
    C206     C        0.68330    0.83557    0.01091    1.000
    H109     H        0.69230    0.87400    0.01650    1.000
    C207     C        0.67530    0.79720    0.04065    1.000
    H110     H        0.67680    0.80370    0.07100    1.000
    C208     C        0.66410    0.74463    0.01765    1.000
    C209     C        0.64600    0.69467    0.03489    1.000
    C210     C        0.63950    0.64305    0.01371    1.000
    C211     C        0.62360    0.59158    0.03096    1.000
    H111     H        0.61120    0.58680    0.05780    1.000
    C212     C        0.62930    0.55100    0.00255    1.000
    H112     H        0.62160    0.51250    0.00560    1.000
    C213     C        0.64900    0.57676    0.96665    1.000
    C214     C        0.66430    0.54920    0.93142    1.000
    C215     C        0.68260    0.57494    0.89648    1.000
    C216     C        0.70200    0.54562    0.86188    1.000
    H113     H        0.70740    0.50650    0.86000    1.000
    C217     C        0.71110    0.58416    0.83260    1.000
    H114     H        0.72430    0.57730    0.80630    1.000
    C218     C        0.69707    0.63783    0.84874    1.000
    C219     C        0.69138    0.68802    0.82478    1.000
    C220     C        0.67383    0.73876    0.84036    1.000
    C221     C        0.66100    0.78915    0.81565    1.000
    H115     H        0.65890    0.79360    0.78490    1.000
    C222     C        0.65230    0.82974    0.84370    1.000
    H116     H        0.64150    0.86750    0.83620    1.000
    C223     C        0.66240    0.80486    0.88688    1.000
    C224     C        0.66920    0.83331    0.92720    1.000
    N19      N        0.66761    0.75076    0.97487    1.000
    N20      N        0.65313    0.63319    0.97373    1.000
    N21      N        0.68134    0.63067    0.88862    1.000
    N22      N        0.67089    0.74850    0.88278    1.000
    C225     C        0.62890    0.69846    0.07849    1.000
    C226     C        0.67650    0.70171    0.11862    1.000
    H117     H        0.72060    0.69930    0.11900    1.000
    C227     C        0.65960    0.70847    0.15813    1.000
    H118     H        0.69230    0.71120    0.18550    1.000
    C228     C        0.59560    0.71134    0.15821    1.000
    C229     C        0.54860    0.70530    0.11882    1.000
    H119     H        0.50460    0.70540    0.11860    1.000
    C230     C        0.56600    0.69910    0.07882    1.000
    H120     H        0.53330    0.69530    0.05150    1.000
    C231     C        0.57840    0.72126    0.20040    1.000
    O43      O        0.62266    0.72344    0.23648    1.000
    O44      O        0.51939    0.72695    0.19942    1.000
    C232     C        0.66150    0.48697    0.92948    1.000
    C233     C        0.60680    0.46035    0.90338    1.000
    H121     H        0.56880    0.48110    0.89070    1.000
    C234     C        0.60800    0.40382    0.89599    1.000
    H122     H        0.57100    0.38610    0.87740    1.000
    C235     C        0.66240    0.37256    0.91531    1.000
    C236     C        0.71650    0.39889    0.94313    1.000
    H123     H        0.75360    0.37770    0.95720    1.000
    C237     C        0.71580    0.45531    0.95012    1.000
    H124     H        0.75260    0.47300    0.96910    1.000
    C238     C        0.66530    0.31209    0.90744    1.000
    O45      O        0.71407    0.28516    0.92715    1.000
    O46      O        0.61703    0.28853    0.88014    1.000
    C239     C        0.71030    0.68675    0.78202    1.000
    C240     C        0.77370    0.67523    0.78245    1.000
    H125     H        0.80410    0.66610    0.80990    1.000
    C241     C        0.79310    0.67694    0.74354    1.000
    H126     H        0.83650    0.66920    0.74430    1.000
    C242     C        0.74880    0.69002    0.70344    1.000
    C243     C        0.68500    0.69834    0.70203    1.000
    H127     H        0.65430    0.70480    0.67420    1.000
    C244     C        0.66490    0.69726    0.74146    1.000
    H128     H        0.62110    0.70360    0.74040    1.000
    C245     C        0.77050    0.69682    0.66187    1.000
    O47      O        0.83067    0.70530    0.66631    1.000
    O48      O        0.73156    0.69433    0.62386    1.000
    C246     C        0.66900    0.89537    0.92564    1.000
    C247     C        0.62320    0.92612    0.94016    1.000
    H129     H        0.59250    0.90730    0.95170    1.000
    C248     C        0.62240    0.98342    0.93773    1.000
    H130     H        0.59140    0.00400    0.94770    1.000
    C249     C        0.66740    0.01134    0.92065    1.000
    C250     C        0.71280    0.98084    0.90645    1.000
    H131     H        0.74350    0.99950    0.89490    1.000
    C251     C        0.71340    0.92312    0.90914    1.000
    H132     H        0.74480    0.90260    0.89950    1.000
    C252     C        0.66810    0.07345    0.91810    1.000
    O49      O        0.69330    0.09678    0.89035    1.000
    O50      O        0.64450    0.10282    0.94420    1.000
    Cu4      Cu       0.66830    0.69023    0.93060    1.000
    C253     C        0.50199    0.34578    0.21024    1.000
    C254     C        0.50810    0.37259    0.17059    1.000
    H133     H        0.50750    0.41160    0.16540    1.000
    C255     C        0.51500    0.33232    0.14176    1.000
    H134     H        0.52050    0.33790    0.11280    1.000
    C256     C        0.51250    0.27982    0.16287    1.000
    C257     C        0.52096    0.22818    0.14455    1.000
    C258     C        0.51650    0.17601    0.16418    1.000
    C259     C        0.51950    0.12308    0.14278    1.000
    H135     H        0.52510    0.11730    0.11390    1.000
    C260     C        0.51260    0.08314    0.17208    1.000
    H136     H        0.51210    0.04410    0.16710    1.000
    C261     C        0.50614    0.10993    0.21147    1.000
    N23      N        0.50355    0.28881    0.20461    1.000
    N24      N        0.50862    0.16706    0.20602    1.000
    C262     C        0.44970    0.46544    0.22201    1.000
    H137     H        0.41470    0.44620    0.20260    1.000
    C263     C        0.45000    0.52291    0.22198    1.000
    H138     H        0.41540    0.54250    0.20240    1.000
    O51      O        0.54841    0.63924    0.27498    1.000
    C264     C        0.53660    0.22670    0.10056    1.000
    C265     C        0.59880    0.22360    0.09793    1.000
    H139     H        0.63260    0.22490    0.12490    1.000
    C266     C        0.61450    0.21890    0.05848    1.000
    H140     H        0.65830    0.21710    0.05810    1.000
    C267     C        0.56600    0.21670    0.01915    1.000
    C268     C        0.50440    0.21970    0.02129    1.000
    H141     H        0.47040    0.21760    0.99450    1.000
    C269     C        0.49020    0.22570    0.06140    1.000
    H142     H        0.44650    0.22930    0.06160    1.000
    C270     C        0.57960    0.21030    0.97290    1.000
    O52      O        0.53340    0.19590    0.94100    1.000
    O53      O        0.63290    0.21874    0.97045    1.000
    C271     C        0.44720    0.99174    0.22455    1.000
    H143     H        0.41090    0.01140    0.20700    1.000
    C272     C        0.44720    0.93344    0.22463    1.000
    H144     H        0.41080    0.91380    0.20720    1.000
    O54      O        0.45009    0.81737    0.22745    1.000
    O55      O        0.76900    0.16280    0.96390    1.000
    O56      O        0.77080    0.80510    0.47790    1.000
    Eu9      Eu       0.08622    0.77081    0.80134    1.000
    Eu10     Eu       0.17521    0.30957    0.41273    1.000
    C273     C        0.17570    0.69258    0.46934    1.000
    C274     C        0.18330    0.66443    0.51091    1.000
    H145     H        0.19230    0.62600    0.51650    1.000
    C275     C        0.17530    0.70280    0.54065    1.000
    H146     H        0.17680    0.69630    0.57100    1.000
    C276     C        0.16410    0.75537    0.51765    1.000
    C277     C        0.14600    0.80533    0.53489    1.000
    C278     C        0.13950    0.85695    0.51371    1.000
    C279     C        0.12360    0.90842    0.53096    1.000
    H147     H        0.11120    0.91320    0.55780    1.000
    C280     C        0.12930    0.94900    0.50255    1.000
    H148     H        0.12160    0.98750    0.50560    1.000
    C281     C        0.14900    0.92324    0.46665    1.000
    C282     C        0.16430    0.95080    0.43142    1.000
    C283     C        0.18260    0.92506    0.39648    1.000
    C284     C        0.20200    0.95438    0.36188    1.000
    H149     H        0.20740    0.99350    0.36000    1.000
    C285     C        0.21110    0.91584    0.33260    1.000
    H150     H        0.22430    0.92270    0.30630    1.000
    C286     C        0.19707    0.86217    0.34874    1.000
    C287     C        0.19138    0.81198    0.32478    1.000
    C288     C        0.17383    0.76124    0.34036    1.000
    C289     C        0.16100    0.71085    0.31565    1.000
    H151     H        0.15890    0.70640    0.28490    1.000
    C290     C        0.15230    0.67026    0.34370    1.000
    H152     H        0.14150    0.63250    0.33620    1.000
    C291     C        0.16240    0.69514    0.38688    1.000
    C292     C        0.16920    0.66669    0.42720    1.000
    N25      N        0.16761    0.74924    0.47487    1.000
    N26      N        0.15313    0.86681    0.47373    1.000
    N27      N        0.18134    0.86933    0.38862    1.000
    N28      N        0.17089    0.75150    0.38278    1.000
    C293     C        0.12890    0.80154    0.57849    1.000
    C294     C        0.17650    0.79829    0.61862    1.000
    H153     H        0.22060    0.80070    0.61900    1.000
    C295     C        0.15960    0.79153    0.65813    1.000
    H154     H        0.19230    0.78880    0.68550    1.000
    C296     C        0.09560    0.78866    0.65821    1.000
    C297     C        0.04860    0.79470    0.61882    1.000
    H155     H        0.00460    0.79460    0.61860    1.000
    C298     C        0.06600    0.80090    0.57882    1.000
    H156     H        0.03330    0.80470    0.55150    1.000
    C299     C        0.07840    0.77874    0.70040    1.000
    O57      O        0.12266    0.77656    0.73648    1.000
    O58      O        0.01939    0.77305    0.69942    1.000
    C300     C        0.16150    0.01303    0.42948    1.000
    C301     C        0.10680    0.03965    0.40338    1.000
    H157     H        0.06880    0.01890    0.39070    1.000
    C302     C        0.10800    0.09618    0.39599    1.000
    H158     H        0.07100    0.11390    0.37740    1.000
    C303     C        0.16240    0.12744    0.41531    1.000
    C304     C        0.21650    0.10111    0.44313    1.000
    H159     H        0.25360    0.12230    0.45720    1.000
    C305     C        0.21580    0.04469    0.45012    1.000
    H160     H        0.25260    0.02700    0.46910    1.000
    C306     C        0.16530    0.18791    0.40744    1.000
    O59      O        0.21407    0.21484    0.42715    1.000
    O60      O        0.11703    0.21147    0.38014    1.000
    C307     C        0.21030    0.81325    0.28202    1.000
    C308     C        0.27370    0.82477    0.28245    1.000
    H161     H        0.30410    0.83390    0.30990    1.000
    C309     C        0.29310    0.82306    0.24354    1.000
    H162     H        0.33650    0.83080    0.24430    1.000
    C310     C        0.24880    0.80998    0.20344    1.000
    C311     C        0.18500    0.80166    0.20203    1.000
    H163     H        0.15430    0.79520    0.17420    1.000
    C312     C        0.16490    0.80274    0.24146    1.000
    H164     H        0.12110    0.79640    0.24040    1.000
    C313     C        0.27050    0.80318    0.16187    1.000
    O61      O        0.33067    0.79470    0.16631    1.000
    O62      O        0.23156    0.80567    0.12386    1.000
    C314     C        0.16900    0.60463    0.42564    1.000
    C315     C        0.12320    0.57388    0.44016    1.000
    H165     H        0.09250    0.59270    0.45170    1.000
    C316     C        0.12240    0.51658    0.43773    1.000
    H166     H        0.09140    0.49600    0.44770    1.000
    C317     C        0.16740    0.48866    0.42065    1.000
    C318     C        0.21280    0.51916    0.40645    1.000
    H167     H        0.24350    0.50050    0.39490    1.000
    C319     C        0.21340    0.57688    0.40914    1.000
    H168     H        0.24480    0.59740    0.39950    1.000
    C320     C        0.16810    0.42655    0.41810    1.000
    O63      O        0.19330    0.40322    0.39035    1.000
    O64      O        0.14450    0.39718    0.44420    1.000
    Cu5      Cu       0.16830    0.80977    0.43060    1.000
    C321     C        0.00199    0.15422    0.71024    1.000
    C322     C        0.00810    0.12741    0.67059    1.000
    H169     H        0.00750    0.08840    0.66540    1.000
    C323     C        0.01500    0.16768    0.64176    1.000
    H170     H        0.02050    0.16210    0.61280    1.000
    C324     C        0.01250    0.22018    0.66287    1.000
    C325     C        0.02096    0.27182    0.64455    1.000
    C326     C        0.01650    0.32399    0.66418    1.000
    C327     C        0.01950    0.37692    0.64278    1.000
    H171     H        0.02510    0.38270    0.61390    1.000
    C328     C        0.01260    0.41686    0.67208    1.000
    H172     H        0.01210    0.45590    0.66710    1.000
    C329     C        0.00614    0.39007    0.71147    1.000
    N29      N        0.00355    0.21119    0.70461    1.000
    N30      N        0.00862    0.33294    0.70602    1.000
    C330     C        0.94970    0.03456    0.72201    1.000
    H173     H        0.91470    0.05380    0.70260    1.000
    C331     C        0.95000    0.97709    0.72198    1.000
    H174     H        0.91540    0.95750    0.70240    1.000
    O65      O        0.04841    0.86076    0.77498    1.000
    C332     C        0.03660    0.27330    0.60056    1.000
    C333     C        0.09880    0.27640    0.59793    1.000
    H175     H        0.13260    0.27510    0.62490    1.000
    C334     C        0.11450    0.28110    0.55848    1.000
    H176     H        0.15830    0.28290    0.55810    1.000
    C335     C        0.06600    0.28330    0.51915    1.000
    C336     C        0.00440    0.28030    0.52129    1.000
    H177     H        0.97040    0.28240    0.49450    1.000
    C337     C        0.99020    0.27430    0.56140    1.000
    H178     H        0.94650    0.27070    0.56160    1.000
    C338     C        0.07960    0.28970    0.47290    1.000
    O66      O        0.03340    0.30410    0.44100    1.000
    O67      O        0.13290    0.28126    0.47045    1.000
    C339     C        0.94720    0.50826    0.72455    1.000
    H179     H        0.91090    0.48860    0.70700    1.000
    C340     C        0.94720    0.56656    0.72463    1.000
    H180     H        0.91080    0.58620    0.70720    1.000
    O68      O        0.95009    0.68263    0.72745    1.000
    O69      O        0.26900    0.33720    0.46390    1.000
    O70      O        0.27080    0.69490    0.97790    1.000
    Eu11     Eu       0.58622    0.27081    0.80134    1.000
    Eu12     Eu       0.67521    0.80957    0.41273    1.000
    C341     C        0.67570    0.19258    0.46934    1.000
    C342     C        0.68330    0.16443    0.51091    1.000
    H181     H        0.69230    0.12600    0.51650    1.000
    C343     C        0.67530    0.20280    0.54065    1.000
    H182     H        0.67680    0.19630    0.57100    1.000
    C344     C        0.66410    0.25537    0.51765    1.000
    C345     C        0.64600    0.30533    0.53489    1.000
    C346     C        0.63950    0.35695    0.51371    1.000
    C347     C        0.62360    0.40842    0.53096    1.000
    H183     H        0.61120    0.41320    0.55780    1.000
    C348     C        0.62930    0.44900    0.50255    1.000
    H184     H        0.62160    0.48750    0.50560    1.000
    C349     C        0.64900    0.42324    0.46665    1.000
    C350     C        0.66430    0.45080    0.43142    1.000
    C351     C        0.68260    0.42506    0.39648    1.000
    C352     C        0.70200    0.45438    0.36188    1.000
    H185     H        0.70740    0.49350    0.36000    1.000
    C353     C        0.71110    0.41584    0.33260    1.000
    H186     H        0.72430    0.42270    0.30630    1.000
    C354     C        0.69707    0.36217    0.34874    1.000
    C355     C        0.69138    0.31198    0.32478    1.000
    C356     C        0.67383    0.26124    0.34036    1.000
    C357     C        0.66100    0.21085    0.31565    1.000
    H187     H        0.65890    0.20640    0.28490    1.000
    C358     C        0.65230    0.17026    0.34370    1.000
    H188     H        0.64150    0.13250    0.33620    1.000
    C359     C        0.66240    0.19514    0.38688    1.000
    C360     C        0.66920    0.16669    0.42720    1.000
    N31      N        0.66761    0.24924    0.47487    1.000
    N32      N        0.65313    0.36681    0.47373    1.000
    N33      N        0.68134    0.36933    0.38862    1.000
    N34      N        0.67089    0.25150    0.38278    1.000
    C361     C        0.62890    0.30154    0.57849    1.000
    C362     C        0.67650    0.29829    0.61862    1.000
    H189     H        0.72060    0.30070    0.61900    1.000
    C363     C        0.65960    0.29153    0.65813    1.000
    H190     H        0.69230    0.28880    0.68550    1.000
    C364     C        0.59560    0.28866    0.65821    1.000
    C365     C        0.54860    0.29470    0.61882    1.000
    H191     H        0.50460    0.29460    0.61860    1.000
    C366     C        0.56600    0.30090    0.57882    1.000
    H192     H        0.53330    0.30470    0.55150    1.000
    C367     C        0.57840    0.27874    0.70040    1.000
    O71      O        0.62266    0.27656    0.73648    1.000
    O72      O        0.51939    0.27305    0.69942    1.000
    C368     C        0.66150    0.51303    0.42948    1.000
    C369     C        0.60680    0.53965    0.40338    1.000
    H193     H        0.56880    0.51890    0.39070    1.000
    C370     C        0.60800    0.59618    0.39599    1.000
    H194     H        0.57100    0.61390    0.37740    1.000
    C371     C        0.66240    0.62744    0.41531    1.000
    C372     C        0.71650    0.60111    0.44313    1.000
    H195     H        0.75360    0.62230    0.45720    1.000
    C373     C        0.71580    0.54469    0.45012    1.000
    H196     H        0.75260    0.52700    0.46910    1.000
    C374     C        0.66530    0.68791    0.40744    1.000
    O73      O        0.71407    0.71484    0.42715    1.000
    O74      O        0.61703    0.71147    0.38014    1.000
    C375     C        0.71030    0.31325    0.28202    1.000
    C376     C        0.77370    0.32477    0.28245    1.000
    H197     H        0.80410    0.33390    0.30990    1.000
    C377     C        0.79310    0.32306    0.24354    1.000
    H198     H        0.83650    0.33080    0.24430    1.000
    C378     C        0.74880    0.30998    0.20344    1.000
    C379     C        0.68500    0.30166    0.20203    1.000
    H199     H        0.65430    0.29520    0.17420    1.000
    C380     C        0.66490    0.30274    0.24146    1.000
    H200     H        0.62110    0.29640    0.24040    1.000
    C381     C        0.77050    0.30318    0.16187    1.000
    O75      O        0.83067    0.29470    0.16631    1.000
    O76      O        0.73156    0.30567    0.12386    1.000
    C382     C        0.66900    0.10463    0.42564    1.000
    C383     C        0.62320    0.07388    0.44016    1.000
    H201     H        0.59250    0.09270    0.45170    1.000
    C384     C        0.62240    0.01658    0.43773    1.000
    H202     H        0.59140    0.99600    0.44770    1.000
    C385     C        0.66740    0.98866    0.42065    1.000
    C386     C        0.71280    0.01916    0.40645    1.000
    H203     H        0.74350    0.00050    0.39490    1.000
    C387     C        0.71340    0.07688    0.40914    1.000
    H204     H        0.74480    0.09740    0.39950    1.000
    C388     C        0.66810    0.92655    0.41810    1.000
    O77      O        0.69330    0.90322    0.39035    1.000
    O78      O        0.64450    0.89718    0.44420    1.000
    Cu6      Cu       0.66830    0.30977    0.43060    1.000
    C389     C        0.50199    0.65422    0.71024    1.000
    C390     C        0.50810    0.62741    0.67059    1.000
    H205     H        0.50750    0.58840    0.66540    1.000
    C391     C        0.51500    0.66768    0.64176    1.000
    H206     H        0.52050    0.66210    0.61280    1.000
    C392     C        0.51250    0.72018    0.66287    1.000
    C393     C        0.52096    0.77182    0.64455    1.000
    C394     C        0.51650    0.82399    0.66418    1.000
    C395     C        0.51950    0.87692    0.64278    1.000
    H207     H        0.52510    0.88270    0.61390    1.000
    C396     C        0.51260    0.91686    0.67208    1.000
    H208     H        0.51210    0.95590    0.66710    1.000
    C397     C        0.50614    0.89007    0.71147    1.000
    N35      N        0.50355    0.71119    0.70461    1.000
    N36      N        0.50862    0.83294    0.70602    1.000
    C398     C        0.44970    0.53456    0.72201    1.000
    H209     H        0.41470    0.55380    0.70260    1.000
    C399     C        0.45000    0.47709    0.72198    1.000
    H210     H        0.41540    0.45750    0.70240    1.000
    O79      O        0.54841    0.36076    0.77498    1.000
    C400     C        0.53660    0.77330    0.60056    1.000
    C401     C        0.59880    0.77640    0.59793    1.000
    H211     H        0.63260    0.77510    0.62490    1.000
    C402     C        0.61450    0.78110    0.55848    1.000
    H212     H        0.65830    0.78290    0.55810    1.000
    C403     C        0.56600    0.78330    0.51915    1.000
    C404     C        0.50440    0.78030    0.52129    1.000
    H213     H        0.47040    0.78240    0.49450    1.000
    C405     C        0.49020    0.77430    0.56140    1.000
    H214     H        0.44650    0.77070    0.56160    1.000
    C406     C        0.57960    0.78970    0.47290    1.000
    O80      O        0.53340    0.80410    0.44100    1.000
    O81      O        0.63290    0.78126    0.47045    1.000
    C407     C        0.44720    0.00826    0.72455    1.000
    H215     H        0.41090    0.98860    0.70700    1.000
    C408     C        0.44720    0.06656    0.72463    1.000
    H216     H        0.41080    0.08620    0.70720    1.000
    O82      O        0.45009    0.18263    0.72745    1.000
    O83      O        0.76900    0.83720    0.46390    1.000
    O84      O        0.77080    0.19490    0.97790    1.000
    Eu13     Eu       0.91378    0.77081    0.69866    1.000
    Eu14     Eu       0.82479    0.30957    0.08727    1.000
    C409     C        0.82430    0.69258    0.03066    1.000
    C410     C        0.81670    0.66443    0.98909    1.000
    H217     H        0.80770    0.62600    0.98350    1.000
    C411     C        0.82470    0.70280    0.95935    1.000
    H218     H        0.82320    0.69630    0.92900    1.000
    C412     C        0.83590    0.75537    0.98235    1.000
    C413     C        0.85400    0.80533    0.96511    1.000
    C414     C        0.86050    0.85695    0.98629    1.000
    C415     C        0.87640    0.90842    0.96904    1.000
    H219     H        0.88880    0.91320    0.94220    1.000
    C416     C        0.87070    0.94900    0.99745    1.000
    H220     H        0.87840    0.98750    0.99440    1.000
    C417     C        0.85100    0.92324    0.03335    1.000
    C418     C        0.83570    0.95080    0.06858    1.000
    C419     C        0.81740    0.92506    0.10352    1.000
    C420     C        0.79800    0.95438    0.13812    1.000
    H221     H        0.79260    0.99350    0.14000    1.000
    C421     C        0.78890    0.91584    0.16740    1.000
    H222     H        0.77570    0.92270    0.19370    1.000
    C422     C        0.80293    0.86217    0.15126    1.000
    C423     C        0.80862    0.81198    0.17522    1.000
    C424     C        0.82617    0.76124    0.15964    1.000
    C425     C        0.83900    0.71085    0.18435    1.000
    H223     H        0.84110    0.70640    0.21510    1.000
    C426     C        0.84770    0.67026    0.15630    1.000
    H224     H        0.85850    0.63250    0.16380    1.000
    C427     C        0.83760    0.69514    0.11312    1.000
    C428     C        0.83080    0.66669    0.07280    1.000
    N37      N        0.83239    0.74924    0.02513    1.000
    N38      N        0.84687    0.86681    0.02627    1.000
    N39      N        0.81866    0.86933    0.11138    1.000
    N40      N        0.82911    0.75150    0.11722    1.000
    C429     C        0.87110    0.80154    0.92151    1.000
    C430     C        0.82350    0.79829    0.88138    1.000
    H225     H        0.77940    0.80070    0.88100    1.000
    C431     C        0.84040    0.79153    0.84187    1.000
    H226     H        0.80770    0.78880    0.81450    1.000
    C432     C        0.90440    0.78866    0.84179    1.000
    C433     C        0.95140    0.79470    0.88118    1.000
    H227     H        0.99540    0.79460    0.88140    1.000
    C434     C        0.93400    0.80090    0.92118    1.000
    H228     H        0.96670    0.80470    0.94850    1.000
    C435     C        0.92160    0.77874    0.79960    1.000
    O85      O        0.87734    0.77656    0.76352    1.000
    O86      O        0.98061    0.77305    0.80058    1.000
    C436     C        0.83850    0.01303    0.07052    1.000
    C437     C        0.89320    0.03965    0.09662    1.000
    H229     H        0.93120    0.01890    0.10930    1.000
    C438     C        0.89200    0.09618    0.10401    1.000
    H230     H        0.92900    0.11390    0.12260    1.000
    C439     C        0.83760    0.12744    0.08469    1.000
    C440     C        0.78350    0.10111    0.05687    1.000
    H231     H        0.74640    0.12230    0.04280    1.000
    C441     C        0.78420    0.04469    0.04988    1.000
    H232     H        0.74740    0.02700    0.03090    1.000
    C442     C        0.83470    0.18791    0.09256    1.000
    O87      O        0.78593    0.21484    0.07285    1.000
    O88      O        0.88297    0.21147    0.11986    1.000
    C443     C        0.78970    0.81325    0.21798    1.000
    C444     C        0.72630    0.82477    0.21755    1.000
    H233     H        0.69590    0.83390    0.19010    1.000
    C445     C        0.70690    0.82306    0.25646    1.000
    H234     H        0.66350    0.83080    0.25570    1.000
    C446     C        0.75120    0.80998    0.29656    1.000
    C447     C        0.81500    0.80166    0.29797    1.000
    H235     H        0.84570    0.79520    0.32580    1.000
    C448     C        0.83510    0.80274    0.25854    1.000
    H236     H        0.87890    0.79640    0.25960    1.000
    C449     C        0.72950    0.80318    0.33813    1.000
    O89      O        0.66933    0.79470    0.33369    1.000
    O90      O        0.76844    0.80567    0.37614    1.000
    C450     C        0.83100    0.60463    0.07436    1.000
    C451     C        0.87680    0.57388    0.05984    1.000
    H237     H        0.90750    0.59270    0.04830    1.000
    C452     C        0.87760    0.51658    0.06227    1.000
    H238     H        0.90860    0.49600    0.05230    1.000
    C453     C        0.83260    0.48866    0.07935    1.000
    C454     C        0.78720    0.51916    0.09355    1.000
    H239     H        0.75650    0.50050    0.10510    1.000
    C455     C        0.78660    0.57688    0.09086    1.000
    H240     H        0.75520    0.59740    0.10050    1.000
    C456     C        0.83190    0.42655    0.08190    1.000
    O91      O        0.80670    0.40322    0.10965    1.000
    O92      O        0.85550    0.39718    0.05580    1.000
    Cu7      Cu       0.83170    0.80977    0.06940    1.000
    C457     C        0.99801    0.15422    0.78976    1.000
    C458     C        0.99190    0.12741    0.82941    1.000
    H241     H        0.99250    0.08840    0.83460    1.000
    C459     C        0.98500    0.16768    0.85824    1.000
    H242     H        0.97950    0.16210    0.88720    1.000
    C460     C        0.98750    0.22018    0.83713    1.000
    C461     C        0.97904    0.27182    0.85545    1.000
    C462     C        0.98350    0.32399    0.83582    1.000
    C463     C        0.98050    0.37692    0.85722    1.000
    H243     H        0.97490    0.38270    0.88610    1.000
    C464     C        0.98740    0.41686    0.82792    1.000
    H244     H        0.98790    0.45590    0.83290    1.000
    C465     C        0.99386    0.39007    0.78853    1.000
    N41      N        0.99645    0.21119    0.79539    1.000
    N42      N        0.99138    0.33294    0.79398    1.000
    C466     C        0.05030    0.03456    0.77799    1.000
    H245     H        0.08530    0.05380    0.79740    1.000
    C467     C        0.05000    0.97709    0.77802    1.000
    H246     H        0.08460    0.95750    0.79760    1.000
    O93      O        0.95159    0.86076    0.72502    1.000
    C468     C        0.96340    0.27330    0.89944    1.000
    C469     C        0.90120    0.27640    0.90207    1.000
    H247     H        0.86740    0.27510    0.87510    1.000
    C470     C        0.88550    0.28110    0.94152    1.000
    H248     H        0.84170    0.28290    0.94190    1.000
    C471     C        0.93400    0.28330    0.98085    1.000
    C472     C        0.99560    0.28030    0.97871    1.000
    H249     H        0.02960    0.28240    0.00550    1.000
    C473     C        0.00980    0.27430    0.93860    1.000
    H250     H        0.05350    0.27070    0.93840    1.000
    C474     C        0.92040    0.28970    0.02710    1.000
    O94      O        0.96660    0.30410    0.05900    1.000
    O95      O        0.86710    0.28126    0.02955    1.000
    C475     C        0.05280    0.50826    0.77545    1.000
    H251     H        0.08910    0.48860    0.79300    1.000
    C476     C        0.05280    0.56656    0.77537    1.000
    H252     H        0.08920    0.58620    0.79280    1.000
    O96      O        0.04991    0.68263    0.77255    1.000
    O97      O        0.73100    0.33720    0.03610    1.000
    O98      O        0.72920    0.69490    0.52210    1.000
    Eu15     Eu       0.41378    0.27081    0.69866    1.000
    Eu16     Eu       0.32479    0.80957    0.08727    1.000
    C477     C        0.32430    0.19258    0.03066    1.000
    C478     C        0.31670    0.16443    0.98909    1.000
    H253     H        0.30770    0.12600    0.98350    1.000
    C479     C        0.32470    0.20280    0.95935    1.000
    H254     H        0.32320    0.19630    0.92900    1.000
    C480     C        0.33590    0.25537    0.98235    1.000
    C481     C        0.35400    0.30533    0.96511    1.000
    C482     C        0.36050    0.35695    0.98629    1.000
    C483     C        0.37640    0.40842    0.96904    1.000
    H255     H        0.38880    0.41320    0.94220    1.000
    C484     C        0.37070    0.44900    0.99745    1.000
    H256     H        0.37840    0.48750    0.99440    1.000
    C485     C        0.35100    0.42324    0.03335    1.000
    C486     C        0.33570    0.45080    0.06858    1.000
    C487     C        0.31740    0.42506    0.10352    1.000
    C488     C        0.29800    0.45438    0.13812    1.000
    H257     H        0.29260    0.49350    0.14000    1.000
    C489     C        0.28890    0.41584    0.16740    1.000
    H258     H        0.27570    0.42270    0.19370    1.000
    C490     C        0.30293    0.36217    0.15126    1.000
    C491     C        0.30862    0.31198    0.17522    1.000
    C492     C        0.32617    0.26124    0.15964    1.000
    C493     C        0.33900    0.21085    0.18435    1.000
    H259     H        0.34110    0.20640    0.21510    1.000
    C494     C        0.34770    0.17026    0.15630    1.000
    H260     H        0.35850    0.13250    0.16380    1.000
    C495     C        0.33760    0.19514    0.11312    1.000
    C496     C        0.33080    0.16669    0.07280    1.000
    N43      N        0.33239    0.24924    0.02513    1.000
    N44      N        0.34687    0.36681    0.02627    1.000
    N45      N        0.31866    0.36933    0.11138    1.000
    N46      N        0.32911    0.25150    0.11722    1.000
    C497     C        0.37110    0.30154    0.92151    1.000
    C498     C        0.32350    0.29829    0.88138    1.000
    H261     H        0.27940    0.30070    0.88100    1.000
    C499     C        0.34040    0.29153    0.84187    1.000
    H262     H        0.30770    0.28880    0.81450    1.000
    C500     C        0.40440    0.28866    0.84179    1.000
    C501     C        0.45140    0.29470    0.88118    1.000
    H263     H        0.49540    0.29460    0.88140    1.000
    C502     C        0.43400    0.30090    0.92118    1.000
    H264     H        0.46670    0.30470    0.94850    1.000
    C503     C        0.42160    0.27874    0.79960    1.000
    O99      O        0.37734    0.27656    0.76352    1.000
    O100     O        0.48061    0.27305    0.80058    1.000
    C504     C        0.33850    0.51303    0.07052    1.000
    C505     C        0.39320    0.53965    0.09662    1.000
    H265     H        0.43120    0.51890    0.10930    1.000
    C506     C        0.39200    0.59618    0.10401    1.000
    H266     H        0.42900    0.61390    0.12260    1.000
    C507     C        0.33760    0.62744    0.08469    1.000
    C508     C        0.28350    0.60111    0.05687    1.000
    H267     H        0.24640    0.62230    0.04280    1.000
    C509     C        0.28420    0.54469    0.04988    1.000
    H268     H        0.24740    0.52700    0.03090    1.000
    C510     C        0.33470    0.68791    0.09256    1.000
    O101     O        0.28593    0.71484    0.07285    1.000
    O102     O        0.38297    0.71147    0.11986    1.000
    C511     C        0.28970    0.31325    0.21798    1.000
    C512     C        0.22630    0.32477    0.21755    1.000
    H269     H        0.19590    0.33390    0.19010    1.000
    C513     C        0.20690    0.32306    0.25646    1.000
    H270     H        0.16350    0.33080    0.25570    1.000
    C514     C        0.25120    0.30998    0.29656    1.000
    C515     C        0.31500    0.30166    0.29797    1.000
    H271     H        0.34570    0.29520    0.32580    1.000
    C516     C        0.33510    0.30274    0.25854    1.000
    H272     H        0.37890    0.29640    0.25960    1.000
    C517     C        0.22950    0.30318    0.33813    1.000
    O103     O        0.16933    0.29470    0.33369    1.000
    O104     O        0.26844    0.30567    0.37614    1.000
    C518     C        0.33100    0.10463    0.07436    1.000
    C519     C        0.37680    0.07388    0.05984    1.000
    H273     H        0.40750    0.09270    0.04830    1.000
    C520     C        0.37760    0.01658    0.06227    1.000
    H274     H        0.40860    0.99600    0.05230    1.000
    C521     C        0.33260    0.98866    0.07935    1.000
    C522     C        0.28720    0.01916    0.09355    1.000
    H275     H        0.25650    0.00050    0.10510    1.000
    C523     C        0.28660    0.07688    0.09086    1.000
    H276     H        0.25520    0.09740    0.10050    1.000
    C524     C        0.33190    0.92655    0.08190    1.000
    O105     O        0.30670    0.90322    0.10965    1.000
    O106     O        0.35550    0.89718    0.05580    1.000
    Cu8      Cu       0.33170    0.30977    0.06940    1.000
    C525     C        0.49801    0.65422    0.78976    1.000
    C526     C        0.49190    0.62741    0.82941    1.000
    H277     H        0.49250    0.58840    0.83460    1.000
    C527     C        0.48500    0.66768    0.85824    1.000
    H278     H        0.47950    0.66210    0.88720    1.000
    C528     C        0.48750    0.72018    0.83713    1.000
    C529     C        0.47904    0.77182    0.85545    1.000
    C530     C        0.48350    0.82399    0.83582    1.000
    C531     C        0.48050    0.87692    0.85722    1.000
    H279     H        0.47490    0.88270    0.88610    1.000
    C532     C        0.48740    0.91686    0.82792    1.000
    H280     H        0.48790    0.95590    0.83290    1.000
    C533     C        0.49386    0.89007    0.78853    1.000
    N47      N        0.49645    0.71119    0.79539    1.000
    N48      N        0.49138    0.83294    0.79398    1.000
    C534     C        0.55030    0.53456    0.77799    1.000
    H281     H        0.58530    0.55380    0.79740    1.000
    C535     C        0.55000    0.47709    0.77802    1.000
    H282     H        0.58460    0.45750    0.79760    1.000
    O107     O        0.45159    0.36076    0.72502    1.000
    C536     C        0.46340    0.77330    0.89944    1.000
    C537     C        0.40120    0.77640    0.90207    1.000
    H283     H        0.36740    0.77510    0.87510    1.000
    C538     C        0.38550    0.78110    0.94152    1.000
    H284     H        0.34170    0.78290    0.94190    1.000
    C539     C        0.43400    0.78330    0.98085    1.000
    C540     C        0.49560    0.78030    0.97871    1.000
    H285     H        0.52960    0.78240    0.00550    1.000
    C541     C        0.50980    0.77430    0.93860    1.000
    H286     H        0.55350    0.77070    0.93840    1.000
    C542     C        0.42040    0.78970    0.02710    1.000
    O108     O        0.46660    0.80410    0.05900    1.000
    O109     O        0.36710    0.78126    0.02955    1.000
    C543     C        0.55280    0.00826    0.77545    1.000
    H287     H        0.58910    0.98860    0.79300    1.000
    C544     C        0.55280    0.06656    0.77537    1.000
    H288     H        0.58920    0.08620    0.79280    1.000
    O110     O        0.54991    0.18263    0.77255    1.000
    O111     O        0.23100    0.83720    0.03610    1.000
    O112     O        0.22920    0.19490    0.52210    1.000
    C545     C        0.00000    0.87330    0.25000    1.000
    C546     C        0.00000    0.58340    0.25000    1.000
    C547     C        0.00000    0.93500    0.25000    1.000
    C548     C        0.00000    0.05220    0.25000    1.000
    C549     C        0.00000    0.11530    0.25000    1.000
    C550     C        0.00000    0.52110    0.25000    1.000
    C551     C        0.00000    0.40420    0.25000    1.000
    C552     C        0.00000    0.34210    0.25000    1.000
    C553     C        0.50000    0.37330    0.25000    1.000
    C554     C        0.50000    0.08340    0.25000    1.000
    C555     C        0.50000    0.43500    0.25000    1.000
    C556     C        0.50000    0.55220    0.25000    1.000
    C557     C        0.50000    0.61530    0.25000    1.000
    C558     C        0.50000    0.02110    0.25000    1.000
    C559     C        0.50000    0.90420    0.25000    1.000
    C560     C        0.50000    0.84210    0.25000    1.000
    C561     C        0.00000    0.12670    0.75000    1.000
    C562     C        0.00000    0.41660    0.75000    1.000
    C563     C        0.00000    0.06500    0.75000    1.000
    C564     C        0.00000    0.94780    0.75000    1.000
    C565     C        0.00000    0.88470    0.75000    1.000
    C566     C        0.00000    0.47890    0.75000    1.000
    C567     C        0.00000    0.59580    0.75000    1.000
    C568     C        0.00000    0.65790    0.75000    1.000
    C569     C        0.50000    0.62670    0.75000    1.000
    C570     C        0.50000    0.91660    0.75000    1.000
    C571     C        0.50000    0.56500    0.75000    1.000
    C572     C        0.50000    0.44780    0.75000    1.000
    C573     C        0.50000    0.38470    0.75000    1.000
    C574     C        0.50000    0.97890    0.75000    1.000
    C575     C        0.50000    0.09580    0.75000    1.000
    C576     C        0.50000    0.15790    0.75000    1.000
    Cu9      Cu       0.50000    0.22680    0.25000    1.000
    Cu10     Cu       0.00000    0.72680    0.25000    1.000
    Cu11     Cu       0.50000    0.77320    0.75000    1.000
    Cu12     Cu       0.00000    0.27320    0.75000    1.000
