# CIF file generated by openbabel 3.1.0, see https://openbabel.org
data_I
_chemical_name_common 'image0'
_cell_length_a 8.5536
_cell_length_b 19.3919
_cell_length_c 44.3014
_cell_angle_alpha 90
_cell_angle_beta 91.111
_cell_angle_gamma 90
_space_group_name_H-M_alt 'P 1'
_space_group_name_Hall 'P 1'
loop_
    _symmetry_equiv_pos_as_xyz
    x,y,z
loop_
    _atom_site_label
    _atom_site_type_symbol
    _atom_site_fract_x
    _atom_site_fract_y
    _atom_site_fract_z
    _atom_site_occupancy
    U1       U        0.08011    0.80385    0.84339    1.000
    O1       O        0.01260    0.73330    0.79763    1.000
    C1       C        0.68870    0.55750    0.73630    1.000
    C2       C        0.54830    0.62430    0.70270    1.000
    N1       N        0.65240    0.61890    0.72620    1.000
    O2       O        0.16380    0.85710    0.89200    1.000
    C3       C        0.15790    0.47180    0.84330    1.000
    H1       H        0.23650    0.46560    0.85790    1.000
    C4       C        0.18870    0.79660    0.90520    1.000
    C5       C        0.11720    0.53980    0.83590    1.000
    H2       H        0.15290    0.57800    0.84660    1.000
    C6       C        0.51800    0.80050    0.96380    1.000
    C7       C        0.20400    0.76990    0.95880    1.000
    H3       H        0.09860    0.75800    0.95740    1.000
    C8       C        0.43700    0.80860    0.93570    1.000
    C9       C        0.27670    0.79370    0.93430    1.000
    C10      C        0.52750    0.49880    0.70020    1.000
    C11      C        0.97150    0.61200    0.79920    1.000
    C12      C        0.62830    0.49490    0.72420    1.000
    H4       H        0.65680    0.45250    0.73250    1.000
    C13      C        0.86830    0.61440    0.77490    1.000
    H5       H        0.83960    0.65690    0.76680    1.000
    C14      C        0.94920    0.48810    0.79620    1.000
    C15      C        0.98780    0.41720    0.80620    1.000
    H6       H        0.94730    0.37770    0.79710    1.000
    C16      C        0.36830    0.57610    0.66440    1.000
    H7       H        0.31840    0.53910    0.65500    1.000
    C17      C        0.09440    0.41630    0.83150    1.000
    H8       H        0.12010    0.37380    0.84000    1.000
    C18      C        0.48120    0.56330    0.68810    1.000
    C19      C        0.50640    0.68610    0.69240    1.000
    H9       H        0.55140    0.72320    0.70270    1.000
    C20      C        0.02330    0.67930    0.81310    1.000
    C21      C        0.47370    0.43290    0.68690    1.000
    C22      C        0.33320    0.64090    0.65550    1.000
    H10      H        0.25800    0.64580    0.64020    1.000
    O3       O        0.14410    0.74370    0.89160    1.000
    C23      C        0.40320    0.70470    0.66790    1.000
    H11      H        0.38370    0.74930    0.66090    1.000
    N2       N        0.84130    0.49160    0.77220    1.000
    C24      C        0.76800    0.83670    0.94210    1.000
    H12      H        0.87510    0.84460    0.94380    1.000
    C25      C        0.68400    0.84710    0.91430    1.000
    H13      H        0.73750    0.86390    0.89770    1.000
    C26      C        0.28800    0.76280    0.98700    1.000
    C27      C        0.01860    0.54400    0.81090    1.000
    N3       N        0.44010    0.77700    0.98900    1.000
    C28      C        0.68000    0.81390    0.96660    1.000
    H14      H        0.72970    0.80740    0.98530    1.000
    C29      C        0.52500    0.83310    0.91100    1.000
    H15      H        0.47510    0.84000    0.89240    1.000
    C30      C        0.80530    0.55310    0.76210    1.000
    O4       O        0.27750    0.83770    0.75030    1.000
    O5       O        0.06720    0.67670    0.84027    1.000
    O6       O        0.48240    0.37560    0.70159    1.000
    O7       O        0.42940    0.42590    0.65890    1.000
    O8       O        0.27970    0.76590    0.75090    1.000
    U2       U        0.58011    0.30385    0.84339    1.000
    O9       O        0.51260    0.23330    0.79763    1.000
    C31      C        0.18870    0.05750    0.73630    1.000
    C32      C        0.04830    0.12430    0.70270    1.000
    N4       N        0.15240    0.11890    0.72620    1.000
    O10      O        0.66380    0.35710    0.89200    1.000
    C33      C        0.65790    0.97180    0.84330    1.000
    H16      H        0.73650    0.96560    0.85790    1.000
    C34      C        0.68870    0.29660    0.90520    1.000
    C35      C        0.61720    0.03980    0.83590    1.000
    H17      H        0.65290    0.07800    0.84660    1.000
    C36      C        0.01800    0.30050    0.96380    1.000
    C37      C        0.70400    0.26990    0.95880    1.000
    H18      H        0.59860    0.25800    0.95740    1.000
    C38      C        0.93700    0.30860    0.93570    1.000
    C39      C        0.77670    0.29370    0.93430    1.000
    C40      C        0.02750    0.99880    0.70020    1.000
    C41      C        0.47150    0.11200    0.79920    1.000
    C42      C        0.12830    0.99490    0.72420    1.000
    H19      H        0.15680    0.95250    0.73250    1.000
    C43      C        0.36830    0.11440    0.77490    1.000
    H20      H        0.33960    0.15690    0.76680    1.000
    C44      C        0.44920    0.98810    0.79620    1.000
    C45      C        0.48780    0.91720    0.80620    1.000
    H21      H        0.44730    0.87770    0.79710    1.000
    C46      C        0.86830    0.07610    0.66440    1.000
    H22      H        0.81840    0.03910    0.65500    1.000
    C47      C        0.59440    0.91630    0.83150    1.000
    H23      H        0.62010    0.87380    0.84000    1.000
    C48      C        0.98120    0.06330    0.68810    1.000
    C49      C        0.00640    0.18610    0.69240    1.000
    H24      H        0.05140    0.22320    0.70270    1.000
    C50      C        0.52330    0.17930    0.81310    1.000
    C51      C        0.97370    0.93290    0.68690    1.000
    C52      C        0.83320    0.14090    0.65550    1.000
    H25      H        0.75800    0.14580    0.64020    1.000
    O11      O        0.64410    0.24370    0.89160    1.000
    C53      C        0.90320    0.20470    0.66790    1.000
    H26      H        0.88370    0.24930    0.66090    1.000
    N5       N        0.34130    0.99160    0.77220    1.000
    C54      C        0.26800    0.33670    0.94210    1.000
    H27      H        0.37510    0.34460    0.94380    1.000
    C55      C        0.18400    0.34710    0.91430    1.000
    H28      H        0.23750    0.36390    0.89770    1.000
    C56      C        0.78800    0.26280    0.98700    1.000
    C57      C        0.51860    0.04400    0.81090    1.000
    N6       N        0.94010    0.27700    0.98900    1.000
    C58      C        0.18000    0.31390    0.96660    1.000
    H29      H        0.22970    0.30740    0.98530    1.000
    C59      C        0.02500    0.33310    0.91100    1.000
    H30      H        0.97510    0.34000    0.89240    1.000
    C60      C        0.30530    0.05310    0.76210    1.000
    O12      O        0.77750    0.33770    0.75030    1.000
    O13      O        0.56720    0.17670    0.84027    1.000
    O14      O        0.98240    0.87560    0.70159    1.000
    O15      O        0.92940    0.92590    0.65890    1.000
    O16      O        0.77970    0.26590    0.75090    1.000
    U3       U        0.91989    0.80385    0.65661    1.000
    O17      O        0.98740    0.73330    0.70237    1.000
    C61      C        0.31130    0.55750    0.76370    1.000
    C62      C        0.45170    0.62430    0.79730    1.000
    N7       N        0.34760    0.61890    0.77380    1.000
    O18      O        0.83620    0.85710    0.60800    1.000
    C63      C        0.84210    0.47180    0.65670    1.000
    H31      H        0.76350    0.46560    0.64210    1.000
    C64      C        0.81130    0.79660    0.59480    1.000
    C65      C        0.88280    0.53980    0.66410    1.000
    H32      H        0.84710    0.57800    0.65340    1.000
    C66      C        0.48200    0.80050    0.53620    1.000
    C67      C        0.79600    0.76990    0.54120    1.000
    H33      H        0.90140    0.75800    0.54260    1.000
    C68      C        0.56300    0.80860    0.56430    1.000
    C69      C        0.72330    0.79370    0.56570    1.000
    C70      C        0.47250    0.49880    0.79980    1.000
    C71      C        0.02850    0.61200    0.70080    1.000
    C72      C        0.37170    0.49490    0.77580    1.000
    H34      H        0.34320    0.45250    0.76750    1.000
    C73      C        0.13170    0.61440    0.72510    1.000
    H35      H        0.16040    0.65690    0.73320    1.000
    C74      C        0.05080    0.48810    0.70380    1.000
    C75      C        0.01220    0.41720    0.69380    1.000
    H36      H        0.05270    0.37770    0.70290    1.000
    C76      C        0.63170    0.57610    0.83560    1.000
    H37      H        0.68160    0.53910    0.84500    1.000
    C77      C        0.90560    0.41630    0.66850    1.000
    H38      H        0.87990    0.37380    0.66000    1.000
    C78      C        0.51880    0.56330    0.81190    1.000
    C79      C        0.49360    0.68610    0.80760    1.000
    H39      H        0.44860    0.72320    0.79730    1.000
    C80      C        0.97670    0.67930    0.68690    1.000
    C81      C        0.52630    0.43290    0.81310    1.000
    C82      C        0.66680    0.64090    0.84450    1.000
    H40      H        0.74200    0.64580    0.85980    1.000
    O19      O        0.85590    0.74370    0.60840    1.000
    C83      C        0.59680    0.70470    0.83210    1.000
    H41      H        0.61630    0.74930    0.83910    1.000
    N8       N        0.15870    0.49160    0.72780    1.000
    C84      C        0.23200    0.83670    0.55790    1.000
    H42      H        0.12490    0.84460    0.55620    1.000
    C85      C        0.31600    0.84710    0.58570    1.000
    H43      H        0.26250    0.86390    0.60230    1.000
    C86      C        0.71200    0.76280    0.51300    1.000
    C87      C        0.98140    0.54400    0.68910    1.000
    N9       N        0.55990    0.77700    0.51100    1.000
    C88      C        0.32000    0.81390    0.53340    1.000
    H44      H        0.27030    0.80740    0.51470    1.000
    C89      C        0.47500    0.83310    0.58900    1.000
    H45      H        0.52490    0.84000    0.60760    1.000
    C90      C        0.19470    0.55310    0.73790    1.000
    O20      O        0.72250    0.83770    0.74970    1.000
    O21      O        0.93280    0.67670    0.65973    1.000
    O22      O        0.51760    0.37560    0.79841    1.000
    O23      O        0.57060    0.42590    0.84110    1.000
    O24      O        0.72030    0.76590    0.74910    1.000
    U4       U        0.41989    0.30385    0.65661    1.000
    O25      O        0.48740    0.23330    0.70237    1.000
    C91      C        0.81130    0.05750    0.76370    1.000
    C92      C        0.95170    0.12430    0.79730    1.000
    N10      N        0.84760    0.11890    0.77380    1.000
    O26      O        0.33620    0.35710    0.60800    1.000
    C93      C        0.34210    0.97180    0.65670    1.000
    H46      H        0.26350    0.96560    0.64210    1.000
    C94      C        0.31130    0.29660    0.59480    1.000
    C95      C        0.38280    0.03980    0.66410    1.000
    H47      H        0.34710    0.07800    0.65340    1.000
    C96      C        0.98200    0.30050    0.53620    1.000
    C97      C        0.29600    0.26990    0.54120    1.000
    H48      H        0.40140    0.25800    0.54260    1.000
    C98      C        0.06300    0.30860    0.56430    1.000
    C99      C        0.22330    0.29370    0.56570    1.000
    C100     C        0.97250    0.99880    0.79980    1.000
    C101     C        0.52850    0.11200    0.70080    1.000
    C102     C        0.87170    0.99490    0.77580    1.000
    H49      H        0.84320    0.95250    0.76750    1.000
    C103     C        0.63170    0.11440    0.72510    1.000
    H50      H        0.66040    0.15690    0.73320    1.000
    C104     C        0.55080    0.98810    0.70380    1.000
    C105     C        0.51220    0.91720    0.69380    1.000
    H51      H        0.55270    0.87770    0.70290    1.000
    C106     C        0.13170    0.07610    0.83560    1.000
    H52      H        0.18160    0.03910    0.84500    1.000
    C107     C        0.40560    0.91630    0.66850    1.000
    H53      H        0.37990    0.87380    0.66000    1.000
    C108     C        0.01880    0.06330    0.81190    1.000
    C109     C        0.99360    0.18610    0.80760    1.000
    H54      H        0.94860    0.22320    0.79730    1.000
    C110     C        0.47670    0.17930    0.68690    1.000
    C111     C        0.02630    0.93290    0.81310    1.000
    C112     C        0.16680    0.14090    0.84450    1.000
    H55      H        0.24200    0.14580    0.85980    1.000
    O27      O        0.35590    0.24370    0.60840    1.000
    C113     C        0.09680    0.20470    0.83210    1.000
    H56      H        0.11630    0.24930    0.83910    1.000
    N11      N        0.65870    0.99160    0.72780    1.000
    C114     C        0.73200    0.33670    0.55790    1.000
    H57      H        0.62490    0.34460    0.55620    1.000
    C115     C        0.81600    0.34710    0.58570    1.000
    H58      H        0.76250    0.36390    0.60230    1.000
    C116     C        0.21200    0.26280    0.51300    1.000
    C117     C        0.48140    0.04400    0.68910    1.000
    N12      N        0.05990    0.27700    0.51100    1.000
    C118     C        0.82000    0.31390    0.53340    1.000
    H59      H        0.77030    0.30740    0.51470    1.000
    C119     C        0.97500    0.33310    0.58900    1.000
    H60      H        0.02490    0.34000    0.60760    1.000
    C120     C        0.69470    0.05310    0.73790    1.000
    O28      O        0.22250    0.33770    0.74970    1.000
    O29      O        0.43280    0.17670    0.65973    1.000
    O30      O        0.01760    0.87560    0.79841    1.000
    O31      O        0.07060    0.92590    0.84110    1.000
    O32      O        0.22030    0.26590    0.74910    1.000
    U5       U        0.91989    0.19615    0.15661    1.000
    O33      O        0.98740    0.26670    0.20237    1.000
    C121     C        0.31130    0.44250    0.26370    1.000
    C122     C        0.45170    0.37570    0.29730    1.000
    N13      N        0.34760    0.38110    0.27380    1.000
    O34      O        0.83620    0.14290    0.10800    1.000
    C123     C        0.84210    0.52820    0.15670    1.000
    H61      H        0.76350    0.53440    0.14210    1.000
    C124     C        0.81130    0.20340    0.09480    1.000
    C125     C        0.88280    0.46020    0.16410    1.000
    H62      H        0.84710    0.42200    0.15340    1.000
    C126     C        0.48200    0.19950    0.03620    1.000
    C127     C        0.79600    0.23010    0.04120    1.000
    H63      H        0.90140    0.24200    0.04260    1.000
    C128     C        0.56300    0.19140    0.06430    1.000
    C129     C        0.72330    0.20630    0.06570    1.000
    C130     C        0.47250    0.50120    0.29980    1.000
    C131     C        0.02850    0.38800    0.20080    1.000
    C132     C        0.37170    0.50510    0.27580    1.000
    H64      H        0.34320    0.54750    0.26750    1.000
    C133     C        0.13170    0.38560    0.22510    1.000
    H65      H        0.16040    0.34310    0.23320    1.000
    C134     C        0.05080    0.51190    0.20380    1.000
    C135     C        0.01220    0.58280    0.19380    1.000
    H66      H        0.05270    0.62230    0.20290    1.000
    C136     C        0.63170    0.42390    0.33560    1.000
    H67      H        0.68160    0.46090    0.34500    1.000
    C137     C        0.90560    0.58370    0.16850    1.000
    H68      H        0.87990    0.62620    0.16000    1.000
    C138     C        0.51880    0.43670    0.31190    1.000
    C139     C        0.49360    0.31390    0.30760    1.000
    H69      H        0.44860    0.27680    0.29730    1.000
    C140     C        0.97670    0.32070    0.18690    1.000
    C141     C        0.52630    0.56710    0.31310    1.000
    C142     C        0.66680    0.35910    0.34450    1.000
    H70      H        0.74200    0.35420    0.35980    1.000
    O35      O        0.85590    0.25630    0.10840    1.000
    C143     C        0.59680    0.29530    0.33210    1.000
    H71      H        0.61630    0.25070    0.33910    1.000
    N14      N        0.15870    0.50840    0.22780    1.000
    C144     C        0.23200    0.16330    0.05790    1.000
    H72      H        0.12490    0.15540    0.05620    1.000
    C145     C        0.31600    0.15290    0.08570    1.000
    H73      H        0.26250    0.13610    0.10230    1.000
    C146     C        0.71200    0.23720    0.01300    1.000
    C147     C        0.98140    0.45600    0.18910    1.000
    N15      N        0.55990    0.22300    0.01100    1.000
    C148     C        0.32000    0.18610    0.03340    1.000
    H74      H        0.27030    0.19260    0.01470    1.000
    C149     C        0.47500    0.16690    0.08900    1.000
    H75      H        0.52490    0.16000    0.10760    1.000
    C150     C        0.19470    0.44690    0.23790    1.000
    O36      O        0.72250    0.16230    0.24970    1.000
    O37      O        0.93280    0.32330    0.15973    1.000
    O38      O        0.51760    0.62440    0.29841    1.000
    O39      O        0.57060    0.57410    0.34110    1.000
    O40      O        0.72030    0.23410    0.24910    1.000
    U6       U        0.41989    0.69615    0.15661    1.000
    O41      O        0.48740    0.76670    0.20237    1.000
    C151     C        0.81130    0.94250    0.26370    1.000
    C152     C        0.95170    0.87570    0.29730    1.000
    N16      N        0.84760    0.88110    0.27380    1.000
    O42      O        0.33620    0.64290    0.10800    1.000
    C153     C        0.34210    0.02820    0.15670    1.000
    H76      H        0.26350    0.03440    0.14210    1.000
    C154     C        0.31130    0.70340    0.09480    1.000
    C155     C        0.38280    0.96020    0.16410    1.000
    H77      H        0.34710    0.92200    0.15340    1.000
    C156     C        0.98200    0.69950    0.03620    1.000
    C157     C        0.29600    0.73010    0.04120    1.000
    H78      H        0.40140    0.74200    0.04260    1.000
    C158     C        0.06300    0.69140    0.06430    1.000
    C159     C        0.22330    0.70630    0.06570    1.000
    C160     C        0.97250    0.00120    0.29980    1.000
    C161     C        0.52850    0.88800    0.20080    1.000
    C162     C        0.87170    0.00510    0.27580    1.000
    H79      H        0.84320    0.04750    0.26750    1.000
    C163     C        0.63170    0.88560    0.22510    1.000
    H80      H        0.66040    0.84310    0.23320    1.000
    C164     C        0.55080    0.01190    0.20380    1.000
    C165     C        0.51220    0.08280    0.19380    1.000
    H81      H        0.55270    0.12230    0.20290    1.000
    C166     C        0.13170    0.92390    0.33560    1.000
    H82      H        0.18160    0.96090    0.34500    1.000
    C167     C        0.40560    0.08370    0.16850    1.000
    H83      H        0.37990    0.12620    0.16000    1.000
    C168     C        0.01880    0.93670    0.31190    1.000
    C169     C        0.99360    0.81390    0.30760    1.000
    H84      H        0.94860    0.77680    0.29730    1.000
    C170     C        0.47670    0.82070    0.18690    1.000
    C171     C        0.02630    0.06710    0.31310    1.000
    C172     C        0.16680    0.85910    0.34450    1.000
    H85      H        0.24200    0.85420    0.35980    1.000
    O43      O        0.35590    0.75630    0.10840    1.000
    C173     C        0.09680    0.79530    0.33210    1.000
    H86      H        0.11630    0.75070    0.33910    1.000
    N17      N        0.65870    0.00840    0.22780    1.000
    C174     C        0.73200    0.66330    0.05790    1.000
    H87      H        0.62490    0.65540    0.05620    1.000
    C175     C        0.81600    0.65290    0.08570    1.000
    H88      H        0.76250    0.63610    0.10230    1.000
    C176     C        0.21200    0.73720    0.01300    1.000
    C177     C        0.48140    0.95600    0.18910    1.000
    N18      N        0.05990    0.72300    0.01100    1.000
    C178     C        0.82000    0.68610    0.03340    1.000
    H89      H        0.77030    0.69260    0.01470    1.000
    C179     C        0.97500    0.66690    0.08900    1.000
    H90      H        0.02490    0.66000    0.10760    1.000
    C180     C        0.69470    0.94690    0.23790    1.000
    O44      O        0.22250    0.66230    0.24970    1.000
    O45      O        0.43280    0.82330    0.15973    1.000
    O46      O        0.01760    0.12440    0.29841    1.000
    O47      O        0.07060    0.07410    0.34110    1.000
    O48      O        0.22030    0.73410    0.24910    1.000
    U7       U        0.08011    0.19615    0.34339    1.000
    O49      O        0.01260    0.26670    0.29763    1.000
    C181     C        0.68870    0.44250    0.23630    1.000
    C182     C        0.54830    0.37570    0.20270    1.000
    N19      N        0.65240    0.38110    0.22620    1.000
    O50      O        0.16380    0.14290    0.39200    1.000
    C183     C        0.15790    0.52820    0.34330    1.000
    H91      H        0.23650    0.53440    0.35790    1.000
    C184     C        0.18870    0.20340    0.40520    1.000
    C185     C        0.11720    0.46020    0.33590    1.000
    H92      H        0.15290    0.42200    0.34660    1.000
    C186     C        0.51800    0.19950    0.46380    1.000
    C187     C        0.20400    0.23010    0.45880    1.000
    H93      H        0.09860    0.24200    0.45740    1.000
    C188     C        0.43700    0.19140    0.43570    1.000
    C189     C        0.27670    0.20630    0.43430    1.000
    C190     C        0.52750    0.50120    0.20020    1.000
    C191     C        0.97150    0.38800    0.29920    1.000
    C192     C        0.62830    0.50510    0.22420    1.000
    H94      H        0.65680    0.54750    0.23250    1.000
    C193     C        0.86830    0.38560    0.27490    1.000
    H95      H        0.83960    0.34310    0.26680    1.000
    C194     C        0.94920    0.51190    0.29620    1.000
    C195     C        0.98780    0.58280    0.30620    1.000
    H96      H        0.94730    0.62230    0.29710    1.000
    C196     C        0.36830    0.42390    0.16440    1.000
    H97      H        0.31840    0.46090    0.15500    1.000
    C197     C        0.09440    0.58370    0.33150    1.000
    H98      H        0.12010    0.62620    0.34000    1.000
    C198     C        0.48120    0.43670    0.18810    1.000
    C199     C        0.50640    0.31390    0.19240    1.000
    H99      H        0.55140    0.27680    0.20270    1.000
    C200     C        0.02330    0.32070    0.31310    1.000
    C201     C        0.47370    0.56710    0.18690    1.000
    C202     C        0.33320    0.35910    0.15550    1.000
    H100     H        0.25800    0.35420    0.14020    1.000
    O51      O        0.14410    0.25630    0.39160    1.000
    C203     C        0.40320    0.29530    0.16790    1.000
    H101     H        0.38370    0.25070    0.16090    1.000
    N20      N        0.84130    0.50840    0.27220    1.000
    C204     C        0.76800    0.16330    0.44210    1.000
    H102     H        0.87510    0.15540    0.44380    1.000
    C205     C        0.68400    0.15290    0.41430    1.000
    H103     H        0.73750    0.13610    0.39770    1.000
    C206     C        0.28800    0.23720    0.48700    1.000
    C207     C        0.01860    0.45600    0.31090    1.000
    N21      N        0.44010    0.22300    0.48900    1.000
    C208     C        0.68000    0.18610    0.46660    1.000
    H104     H        0.72970    0.19260    0.48530    1.000
    C209     C        0.52500    0.16690    0.41100    1.000
    H105     H        0.47510    0.16000    0.39240    1.000
    C210     C        0.80530    0.44690    0.26210    1.000
    O52      O        0.27750    0.16230    0.25030    1.000
    O53      O        0.06720    0.32330    0.34027    1.000
    O54      O        0.48240    0.62440    0.20159    1.000
    O55      O        0.42940    0.57410    0.15890    1.000
    O56      O        0.27970    0.23410    0.25090    1.000
    U8       U        0.58011    0.69615    0.34339    1.000
    O57      O        0.51260    0.76670    0.29763    1.000
    C211     C        0.18870    0.94250    0.23630    1.000
    C212     C        0.04830    0.87570    0.20270    1.000
    N22      N        0.15240    0.88110    0.22620    1.000
    O58      O        0.66380    0.64290    0.39200    1.000
    C213     C        0.65790    0.02820    0.34330    1.000
    H106     H        0.73650    0.03440    0.35790    1.000
    C214     C        0.68870    0.70340    0.40520    1.000
    C215     C        0.61720    0.96020    0.33590    1.000
    H107     H        0.65290    0.92200    0.34660    1.000
    C216     C        0.01800    0.69950    0.46380    1.000
    C217     C        0.70400    0.73010    0.45880    1.000
    H108     H        0.59860    0.74200    0.45740    1.000
    C218     C        0.93700    0.69140    0.43570    1.000
    C219     C        0.77670    0.70630    0.43430    1.000
    C220     C        0.02750    0.00120    0.20020    1.000
    C221     C        0.47150    0.88800    0.29920    1.000
    C222     C        0.12830    0.00510    0.22420    1.000
    H109     H        0.15680    0.04750    0.23250    1.000
    C223     C        0.36830    0.88560    0.27490    1.000
    H110     H        0.33960    0.84310    0.26680    1.000
    C224     C        0.44920    0.01190    0.29620    1.000
    C225     C        0.48780    0.08280    0.30620    1.000
    H111     H        0.44730    0.12230    0.29710    1.000
    C226     C        0.86830    0.92390    0.16440    1.000
    H112     H        0.81840    0.96090    0.15500    1.000
    C227     C        0.59440    0.08370    0.33150    1.000
    H113     H        0.62010    0.12620    0.34000    1.000
    C228     C        0.98120    0.93670    0.18810    1.000
    C229     C        0.00640    0.81390    0.19240    1.000
    H114     H        0.05140    0.77680    0.20270    1.000
    C230     C        0.52330    0.82070    0.31310    1.000
    C231     C        0.97370    0.06710    0.18690    1.000
    C232     C        0.83320    0.85910    0.15550    1.000
    H115     H        0.75800    0.85420    0.14020    1.000
    O59      O        0.64410    0.75630    0.39160    1.000
    C233     C        0.90320    0.79530    0.16790    1.000
    H116     H        0.88370    0.75070    0.16090    1.000
    N23      N        0.34130    0.00840    0.27220    1.000
    C234     C        0.26800    0.66330    0.44210    1.000
    H117     H        0.37510    0.65540    0.44380    1.000
    C235     C        0.18400    0.65290    0.41430    1.000
    H118     H        0.23750    0.63610    0.39770    1.000
    C236     C        0.78800    0.73720    0.48700    1.000
    C237     C        0.51860    0.95600    0.31090    1.000
    N24      N        0.94010    0.72300    0.48900    1.000
    C238     C        0.18000    0.68610    0.46660    1.000
    H119     H        0.22970    0.69260    0.48530    1.000
    C239     C        0.02500    0.66690    0.41100    1.000
    H120     H        0.97510    0.66000    0.39240    1.000
    C240     C        0.30530    0.94690    0.26210    1.000
    O60      O        0.77750    0.66230    0.25030    1.000
    O61      O        0.56720    0.82330    0.34027    1.000
    O62      O        0.98240    0.12440    0.20159    1.000
    O63      O        0.92940    0.07410    0.15890    1.000
    O64      O        0.77970    0.73410    0.25090    1.000
    Na1      Na       0.00000    0.80430    0.75000    1.000
    Na2      Na       0.50000    0.30430    0.75000    1.000
    Na3      Na       0.00000    0.19570    0.25000    1.000
    Na4      Na       0.50000    0.69570    0.25000    1.000
