# CIF file generated by openbabel 3.1.0, see https://openbabel.org
data_I
_chemical_name_common 'image0'
_cell_length_a 21.014
_cell_length_b 13.1528
_cell_length_c 8.5908
_cell_angle_alpha 90
_cell_angle_beta 100.363
_cell_angle_gamma 90
_space_group_name_H-M_alt 'P 1'
_space_group_name_Hall 'P 1'
loop_
    _symmetry_equiv_pos_as_xyz
    x,y,z
loop_
    _atom_site_label
    _atom_site_type_symbol
    _atom_site_fract_x
    _atom_site_fract_y
    _atom_site_fract_z
    _atom_site_occupancy
    Cu1      Cu       0.69770    0.29522    0.92604    1.000
    O1       O        0.74746    0.70718    0.25160    1.000
    C1       C        0.80519    0.73502    0.26120    1.000
    O2       O        0.83850    0.77943    0.37880    1.000
    C2       C        0.83739    0.71228    0.12040    1.000
    H1       H        0.88490    0.71010    0.15600    1.000
    H2       H        0.82760    0.76780    0.04200    1.000
    O3       O        0.74482    0.42005    0.00930    1.000
    C3       C        0.81459    0.61100    0.04130    1.000
    H3       H        0.76760    0.61480    0.99960    1.000
    H4       H        0.83700    0.59930    0.95090    1.000
    O4       O        0.83446    0.34286    0.13360    1.000
    C4       C        0.82806    0.52170    0.15660    1.000
    H5       H        0.87550    0.51440    0.18890    1.000
    H6       H        0.81020    0.53830    0.25260    1.000
    C5       C        0.80049    0.42050    0.09320    1.000
    N1       N        0.61742    0.37510    0.78030    1.000
    C6       C        0.57354    0.32130    0.67750    1.000
    H7       H        0.57050    0.24980    0.68970    1.000
    C7       C        0.52648    0.36830    0.56960    1.000
    H8       H        0.49340    0.32770    0.51010    1.000
    C8       C        0.56840    0.53030    0.67800    1.000
    H9       H        0.56530    0.60230    0.68190    1.000
    C9       C        0.61550    0.47830    0.78180    1.000
    H10      H        0.64660    0.51510    0.85430    1.000
    C10      C        0.52590    0.47398    0.56790    1.000
    C11      C        0.52520    0.47240    0.54390    1.000
    C12      C        0.58020    0.52000    0.62580    1.000
    H11      H        0.58700    0.58970    0.60510    1.000
    C13      C        0.62500    0.47060    0.73510    1.000
    H12      H        0.65940    0.50980    0.79230    1.000
    N2       N        0.62402    0.36980    0.76790    1.000
    Cu2      Cu       0.19770    0.79522    0.92604    1.000
    O5       O        0.24746    0.20718    0.25160    1.000
    C14      C        0.30519    0.23502    0.26120    1.000
    O6       O        0.33850    0.27943    0.37880    1.000
    C15      C        0.33739    0.21228    0.12040    1.000
    H13      H        0.38490    0.21010    0.15600    1.000
    H14      H        0.32760    0.26780    0.04200    1.000
    O7       O        0.24482    0.92005    0.00930    1.000
    C16      C        0.31459    0.11100    0.04130    1.000
    H15      H        0.26760    0.11480    0.99960    1.000
    H16      H        0.33700    0.09930    0.95090    1.000
    O8       O        0.33446    0.84286    0.13360    1.000
    C17      C        0.32806    0.02170    0.15660    1.000
    H17      H        0.37550    0.01440    0.18890    1.000
    H18      H        0.31020    0.03830    0.25260    1.000
    C18      C        0.30049    0.92050    0.09320    1.000
    N3       N        0.11742    0.87510    0.78030    1.000
    C19      C        0.07354    0.82130    0.67750    1.000
    H19      H        0.07050    0.74980    0.68970    1.000
    C20      C        0.02648    0.86830    0.56960    1.000
    H20      H        0.99340    0.82770    0.51010    1.000
    C21      C        0.06840    0.03030    0.67800    1.000
    H21      H        0.06530    0.10230    0.68190    1.000
    C22      C        0.11550    0.97830    0.78180    1.000
    H22      H        0.14660    0.01510    0.85430    1.000
    C23      C        0.02590    0.97398    0.56790    1.000
    C24      C        0.02520    0.97240    0.54390    1.000
    C25      C        0.08020    0.02000    0.62580    1.000
    H23      H        0.08700    0.08970    0.60510    1.000
    C26      C        0.12500    0.97060    0.73510    1.000
    H24      H        0.15940    0.00980    0.79230    1.000
    N4       N        0.12402    0.86980    0.76790    1.000
    Cu3      Cu       0.30230    0.29522    0.57396    1.000
    O9       O        0.25254    0.70718    0.24840    1.000
    C27      C        0.19481    0.73502    0.23880    1.000
    O10      O        0.16150    0.77943    0.12120    1.000
    C28      C        0.16261    0.71228    0.37960    1.000
    H25      H        0.11510    0.71010    0.34400    1.000
    H26      H        0.17240    0.76780    0.45800    1.000
    O11      O        0.25518    0.42005    0.49070    1.000
    C29      C        0.18541    0.61100    0.45870    1.000
    H27      H        0.23240    0.61480    0.50040    1.000
    H28      H        0.16300    0.59930    0.54910    1.000
    O12      O        0.16554    0.34286    0.36640    1.000
    C30      C        0.17194    0.52170    0.34340    1.000
    H29      H        0.12450    0.51440    0.31110    1.000
    H30      H        0.18980    0.53830    0.24740    1.000
    C31      C        0.19951    0.42050    0.40680    1.000
    N5       N        0.38258    0.37510    0.71970    1.000
    C32      C        0.42646    0.32130    0.82250    1.000
    H31      H        0.42950    0.24980    0.81030    1.000
    C33      C        0.47352    0.36830    0.93040    1.000
    H32      H        0.50660    0.32770    0.98990    1.000
    C34      C        0.43160    0.53030    0.82200    1.000
    H33      H        0.43470    0.60230    0.81810    1.000
    C35      C        0.38450    0.47830    0.71820    1.000
    H34      H        0.35340    0.51510    0.64570    1.000
    C36      C        0.47410    0.47398    0.93210    1.000
    C37      C        0.47480    0.47240    0.95610    1.000
    C38      C        0.41980    0.52000    0.87420    1.000
    H35      H        0.41300    0.58970    0.89490    1.000
    C39      C        0.37500    0.47060    0.76490    1.000
    H36      H        0.34060    0.50980    0.70770    1.000
    N6       N        0.37598    0.36980    0.73210    1.000
    Cu4      Cu       0.80229    0.79522    0.57396    1.000
    O13      O        0.75254    0.20718    0.24840    1.000
    C40      C        0.69481    0.23502    0.23880    1.000
    O14      O        0.66150    0.27943    0.12120    1.000
    C41      C        0.66261    0.21228    0.37960    1.000
    H37      H        0.61510    0.21010    0.34400    1.000
    H38      H        0.67240    0.26780    0.45800    1.000
    O15      O        0.75518    0.92005    0.49070    1.000
    C42      C        0.68541    0.11100    0.45870    1.000
    H39      H        0.73240    0.11480    0.50040    1.000
    H40      H        0.66300    0.09930    0.54910    1.000
    O16      O        0.66554    0.84286    0.36640    1.000
    C43      C        0.67194    0.02170    0.34340    1.000
    H41      H        0.62450    0.01440    0.31110    1.000
    H42      H        0.68980    0.03830    0.24740    1.000
    C44      C        0.69951    0.92050    0.40680    1.000
    N7       N        0.88258    0.87510    0.71970    1.000
    C45      C        0.92646    0.82130    0.82250    1.000
    H43      H        0.92950    0.74980    0.81030    1.000
    C46      C        0.97352    0.86830    0.93040    1.000
    H44      H        0.00660    0.82770    0.98990    1.000
    C47      C        0.93160    0.03030    0.82200    1.000
    H45      H        0.93470    0.10230    0.81810    1.000
    C48      C        0.88450    0.97830    0.71820    1.000
    H46      H        0.85340    0.01510    0.64570    1.000
    C49      C        0.97410    0.97398    0.93210    1.000
    C50      C        0.97480    0.97240    0.95610    1.000
    C51      C        0.91980    0.02000    0.87420    1.000
    H47      H        0.91300    0.08970    0.89490    1.000
    C52      C        0.87500    0.97060    0.76490    1.000
    H48      H        0.84060    0.00980    0.70770    1.000
    N8       N        0.87598    0.86980    0.73210    1.000
    Cu5      Cu       0.30230    0.70478    0.07396    1.000
    O17      O        0.25254    0.29282    0.74840    1.000
    C53      C        0.19481    0.26498    0.73880    1.000
    O18      O        0.16150    0.22057    0.62120    1.000
    C54      C        0.16261    0.28772    0.87960    1.000
    H49      H        0.11510    0.28990    0.84400    1.000
    H50      H        0.17240    0.23220    0.95800    1.000
    O19      O        0.25518    0.57995    0.99070    1.000
    C55      C        0.18541    0.38900    0.95870    1.000
    H51      H        0.23240    0.38520    0.00040    1.000
    H52      H        0.16300    0.40070    0.04910    1.000
    O20      O        0.16554    0.65714    0.86640    1.000
    C56      C        0.17194    0.47830    0.84340    1.000
    H53      H        0.12450    0.48560    0.81110    1.000
    H54      H        0.18980    0.46170    0.74740    1.000
    C57      C        0.19951    0.57950    0.90680    1.000
    N9       N        0.38258    0.62490    0.21970    1.000
    C58      C        0.42646    0.67870    0.32250    1.000
    H55      H        0.42950    0.75020    0.31030    1.000
    C59      C        0.47352    0.63170    0.43040    1.000
    H56      H        0.50660    0.67230    0.48990    1.000
    C60      C        0.43160    0.46970    0.32200    1.000
    H57      H        0.43470    0.39770    0.31810    1.000
    C61      C        0.38450    0.52170    0.21820    1.000
    H58      H        0.35340    0.48490    0.14570    1.000
    C62      C        0.47410    0.52602    0.43210    1.000
    C63      C        0.47480    0.52760    0.45610    1.000
    C64      C        0.41980    0.48000    0.37420    1.000
    H59      H        0.41300    0.41030    0.39490    1.000
    C65      C        0.37500    0.52940    0.26490    1.000
    H60      H        0.34060    0.49020    0.20770    1.000
    N10      N        0.37598    0.63020    0.23210    1.000
    Cu6      Cu       0.80229    0.20478    0.07396    1.000
    O21      O        0.75254    0.79282    0.74840    1.000
    C66      C        0.69481    0.76498    0.73880    1.000
    O22      O        0.66150    0.72057    0.62120    1.000
    C67      C        0.66261    0.78772    0.87960    1.000
    H61      H        0.61510    0.78990    0.84400    1.000
    H62      H        0.67240    0.73220    0.95800    1.000
    O23      O        0.75518    0.07995    0.99070    1.000
    C68      C        0.68541    0.88900    0.95870    1.000
    H63      H        0.73240    0.88520    0.00040    1.000
    H64      H        0.66300    0.90070    0.04910    1.000
    O24      O        0.66554    0.15714    0.86640    1.000
    C69      C        0.67194    0.97830    0.84340    1.000
    H65      H        0.62450    0.98560    0.81110    1.000
    H66      H        0.68980    0.96170    0.74740    1.000
    C70      C        0.69951    0.07950    0.90680    1.000
    N11      N        0.88258    0.12490    0.21970    1.000
    C71      C        0.92646    0.17870    0.32250    1.000
    H67      H        0.92950    0.25020    0.31030    1.000
    C72      C        0.97352    0.13170    0.43040    1.000
    H68      H        0.00660    0.17230    0.48990    1.000
    C73      C        0.93160    0.96970    0.32200    1.000
    H69      H        0.93470    0.89770    0.31810    1.000
    C74      C        0.88450    0.02170    0.21820    1.000
    H70      H        0.85340    0.98490    0.14570    1.000
    C75      C        0.97410    0.02602    0.43210    1.000
    C76      C        0.97480    0.02760    0.45610    1.000
    C77      C        0.91980    0.98000    0.37420    1.000
    H71      H        0.91300    0.91030    0.39490    1.000
    C78      C        0.87500    0.02940    0.26490    1.000
    H72      H        0.84060    0.99020    0.20770    1.000
    N12      N        0.87598    0.13020    0.23210    1.000
    Cu7      Cu       0.69770    0.70478    0.42604    1.000
    O25      O        0.74746    0.29282    0.75160    1.000
    C79      C        0.80519    0.26498    0.76120    1.000
    O26      O        0.83850    0.22057    0.87880    1.000
    C80      C        0.83739    0.28772    0.62040    1.000
    H73      H        0.88490    0.28990    0.65600    1.000
    H74      H        0.82760    0.23220    0.54200    1.000
    O27      O        0.74482    0.57995    0.50930    1.000
    C81      C        0.81459    0.38900    0.54130    1.000
    H75      H        0.76760    0.38520    0.49960    1.000
    H76      H        0.83700    0.40070    0.45090    1.000
    O28      O        0.83446    0.65714    0.63360    1.000
    C82      C        0.82806    0.47830    0.65660    1.000
    H77      H        0.87550    0.48560    0.68890    1.000
    H78      H        0.81020    0.46170    0.75260    1.000
    C83      C        0.80049    0.57950    0.59320    1.000
    N13      N        0.61742    0.62490    0.28030    1.000
    C84      C        0.57354    0.67870    0.17750    1.000
    H79      H        0.57050    0.75020    0.18970    1.000
    C85      C        0.52648    0.63170    0.06960    1.000
    H80      H        0.49340    0.67230    0.01010    1.000
    C86      C        0.56840    0.46970    0.17800    1.000
    H81      H        0.56530    0.39770    0.18190    1.000
    C87      C        0.61550    0.52170    0.28180    1.000
    H82      H        0.64660    0.48490    0.35430    1.000
    C88      C        0.52590    0.52602    0.06790    1.000
    C89      C        0.52520    0.52760    0.04390    1.000
    C90      C        0.58020    0.48000    0.12580    1.000
    H83      H        0.58700    0.41030    0.10510    1.000
    C91      C        0.62500    0.52940    0.23510    1.000
    H84      H        0.65940    0.49020    0.29230    1.000
    N14      N        0.62402    0.63020    0.26790    1.000
    Cu8      Cu       0.19770    0.20478    0.42604    1.000
    O29      O        0.24746    0.79282    0.75160    1.000
    C92      C        0.30519    0.76498    0.76120    1.000
    O30      O        0.33850    0.72057    0.87880    1.000
    C93      C        0.33739    0.78772    0.62040    1.000
    H85      H        0.38490    0.78990    0.65600    1.000
    H86      H        0.32760    0.73220    0.54200    1.000
    O31      O        0.24482    0.07995    0.50930    1.000
    C94      C        0.31459    0.88900    0.54130    1.000
    H87      H        0.26760    0.88520    0.49960    1.000
    H88      H        0.33700    0.90070    0.45090    1.000
    O32      O        0.33446    0.15714    0.63360    1.000
    C95      C        0.32806    0.97830    0.65660    1.000
    H89      H        0.37550    0.98560    0.68890    1.000
    H90      H        0.31020    0.96170    0.75260    1.000
    C96      C        0.30049    0.07950    0.59320    1.000
    N15      N        0.11742    0.12490    0.28030    1.000
    C97      C        0.07354    0.17870    0.17750    1.000
    H91      H        0.07050    0.25020    0.18970    1.000
    C98      C        0.02648    0.13170    0.06960    1.000
    H92      H        0.99340    0.17230    0.01010    1.000
    C99      C        0.06840    0.96970    0.17800    1.000
    H93      H        0.06530    0.89770    0.18190    1.000
    C100     C        0.11550    0.02170    0.28180    1.000
    H94      H        0.14660    0.98490    0.35430    1.000
    C101     C        0.02590    0.02602    0.06790    1.000
    C102     C        0.02520    0.02760    0.04390    1.000
    C103     C        0.08020    0.98000    0.12580    1.000
    H95      H        0.08700    0.91030    0.10510    1.000
    C104     C        0.12500    0.02940    0.23510    1.000
    H96      H        0.15940    0.99020    0.29230    1.000
    N16      N        0.12402    0.13020    0.26790    1.000
