# CIF file generated by openbabel 3.1.0, see https://openbabel.org
data_I
_chemical_name_common 'image0'
_cell_length_a 18.204
_cell_length_b 12.3884
_cell_length_c 11.0014
_cell_angle_alpha 90
_cell_angle_beta 102.366
_cell_angle_gamma 90
_space_group_name_H-M_alt 'P 1'
_space_group_name_Hall 'P 1'
loop_
    _symmetry_equiv_pos_as_xyz
    x,y,z
loop_
    _atom_site_label
    _atom_site_type_symbol
    _atom_site_fract_x
    _atom_site_fract_y
    _atom_site_fract_z
    _atom_site_occupancy
    N1       N        0.81640    0.56780    0.38990    1.000
    Mg1      Mg       0.91703    0.46405    0.46041    1.000
    O1       O        0.92470    0.51440    0.28050    1.000
    O2       O        0.86949    0.59120    0.10180    1.000
    O3       O        0.64534    0.83280    0.12830    1.000
    O4       O        0.58117    0.78210    0.27120    1.000
    O5       O        0.02100    0.41030    0.44540    1.000
    H1       H        0.03500    0.36600    0.48000    1.000
    C1       C        0.81190    0.60700    0.27430    1.000
    C2       C        0.75490    0.67450    0.21570    1.000
    H2       H        0.75800    0.70200    0.14300    1.000
    C3       C        0.69960    0.70120    0.27770    1.000
    C4       C        0.70240    0.66000    0.39370    1.000
    H3       H        0.66100    0.67100    0.44000    1.000
    C5       C        0.76200    0.59520    0.44740    1.000
    H4       H        0.76500    0.57100    0.52300    1.000
    C6       C        0.87420    0.56820    0.21240    1.000
    C7       C        0.63630    0.77810    0.21940    1.000
    N2       N        0.31640    0.06780    0.38990    1.000
    Mg2      Mg       0.41703    0.96405    0.46041    1.000
    O6       O        0.42470    0.01440    0.28050    1.000
    O7       O        0.36949    0.09120    0.10180    1.000
    O8       O        0.14534    0.33280    0.12830    1.000
    O9       O        0.08117    0.28210    0.27120    1.000
    O10      O        0.52100    0.91030    0.44540    1.000
    H5       H        0.53500    0.86600    0.48000    1.000
    C8       C        0.31190    0.10700    0.27430    1.000
    C9       C        0.25490    0.17450    0.21570    1.000
    H6       H        0.25800    0.20200    0.14300    1.000
    C10      C        0.19960    0.20120    0.27770    1.000
    C11      C        0.20240    0.16000    0.39370    1.000
    H7       H        0.16100    0.17100    0.44000    1.000
    C12      C        0.26200    0.09520    0.44740    1.000
    H8       H        0.26500    0.07100    0.52300    1.000
    C13      C        0.37420    0.06820    0.21240    1.000
    C14      C        0.13630    0.27810    0.21940    1.000
    N3       N        0.18360    0.56780    0.11010    1.000
    Mg3      Mg       0.08297    0.46405    0.03959    1.000
    O11      O        0.07530    0.51440    0.21950    1.000
    O12      O        0.13051    0.59120    0.39820    1.000
    O13      O        0.35466    0.83280    0.37170    1.000
    O14      O        0.41883    0.78210    0.22880    1.000
    O15      O        0.97900    0.41030    0.05460    1.000
    H9       H        0.96500    0.36600    0.02000    1.000
    C15      C        0.18810    0.60700    0.22570    1.000
    C16      C        0.24510    0.67450    0.28430    1.000
    H10      H        0.24200    0.70200    0.35700    1.000
    C17      C        0.30040    0.70120    0.22230    1.000
    C18      C        0.29760    0.66000    0.10630    1.000
    H11      H        0.33900    0.67100    0.06000    1.000
    C19      C        0.23800    0.59520    0.05260    1.000
    H12      H        0.23500    0.57100    0.97700    1.000
    C20      C        0.12580    0.56820    0.28760    1.000
    C21      C        0.36370    0.77810    0.28060    1.000
    N4       N        0.68360    0.06780    0.11010    1.000
    Mg4      Mg       0.58297    0.96405    0.03959    1.000
    O16      O        0.57530    0.01440    0.21950    1.000
    O17      O        0.63051    0.09120    0.39820    1.000
    O18      O        0.85466    0.33280    0.37170    1.000
    O19      O        0.91883    0.28210    0.22880    1.000
    O20      O        0.47900    0.91030    0.05460    1.000
    H13      H        0.46500    0.86600    0.02000    1.000
    C22      C        0.68810    0.10700    0.22570    1.000
    C23      C        0.74510    0.17450    0.28430    1.000
    H14      H        0.74200    0.20200    0.35700    1.000
    C24      C        0.80040    0.20120    0.22230    1.000
    C25      C        0.79760    0.16000    0.10630    1.000
    H15      H        0.83900    0.17100    0.06000    1.000
    C26      C        0.73800    0.09520    0.05260    1.000
    H16      H        0.73500    0.07100    0.97700    1.000
    C27      C        0.62580    0.06820    0.28760    1.000
    C28      C        0.86370    0.27810    0.28060    1.000
    N5       N        0.18360    0.43220    0.61010    1.000
    Mg5      Mg       0.08297    0.53595    0.53959    1.000
    O21      O        0.07530    0.48560    0.71950    1.000
    O22      O        0.13051    0.40880    0.89820    1.000
    O23      O        0.35466    0.16720    0.87170    1.000
    O24      O        0.41883    0.21790    0.72880    1.000
    O25      O        0.97900    0.58970    0.55460    1.000
    H17      H        0.96500    0.63400    0.52000    1.000
    C29      C        0.18810    0.39300    0.72570    1.000
    C30      C        0.24510    0.32550    0.78430    1.000
    H18      H        0.24200    0.29800    0.85700    1.000
    C31      C        0.30040    0.29880    0.72230    1.000
    C32      C        0.29760    0.34000    0.60630    1.000
    H19      H        0.33900    0.32900    0.56000    1.000
    C33      C        0.23800    0.40480    0.55260    1.000
    H20      H        0.23500    0.42900    0.47700    1.000
    C34      C        0.12580    0.43180    0.78760    1.000
    C35      C        0.36370    0.22190    0.78060    1.000
    N6       N        0.68360    0.93220    0.61010    1.000
    Mg6      Mg       0.58297    0.03595    0.53959    1.000
    O26      O        0.57530    0.98560    0.71950    1.000
    O27      O        0.63051    0.90880    0.89820    1.000
    O28      O        0.85466    0.66720    0.87170    1.000
    O29      O        0.91883    0.71790    0.72880    1.000
    O30      O        0.47900    0.08970    0.55460    1.000
    H21      H        0.46500    0.13400    0.52000    1.000
    C36      C        0.68810    0.89300    0.72570    1.000
    C37      C        0.74510    0.82550    0.78430    1.000
    H22      H        0.74200    0.79800    0.85700    1.000
    C38      C        0.80040    0.79880    0.72230    1.000
    C39      C        0.79760    0.84000    0.60630    1.000
    H23      H        0.83900    0.82900    0.56000    1.000
    C40      C        0.73800    0.90480    0.55260    1.000
    H24      H        0.73500    0.92900    0.47700    1.000
    C41      C        0.62580    0.93180    0.78760    1.000
    C42      C        0.86370    0.72190    0.78060    1.000
    N7       N        0.81640    0.43220    0.88990    1.000
    Mg7      Mg       0.91703    0.53595    0.96041    1.000
    O31      O        0.92470    0.48560    0.78050    1.000
    O32      O        0.86949    0.40880    0.60180    1.000
    O33      O        0.64534    0.16720    0.62830    1.000
    O34      O        0.58117    0.21790    0.77120    1.000
    O35      O        0.02100    0.58970    0.94540    1.000
    H25      H        0.03500    0.63400    0.98000    1.000
    C43      C        0.81190    0.39300    0.77430    1.000
    C44      C        0.75490    0.32550    0.71570    1.000
    H26      H        0.75800    0.29800    0.64300    1.000
    C45      C        0.69960    0.29880    0.77770    1.000
    C46      C        0.70240    0.34000    0.89370    1.000
    H27      H        0.66100    0.32900    0.94000    1.000
    C47      C        0.76200    0.40480    0.94740    1.000
    H28      H        0.76500    0.42900    0.02300    1.000
    C48      C        0.87420    0.43180    0.71240    1.000
    C49      C        0.63630    0.22190    0.71940    1.000
    N8       N        0.31640    0.93220    0.88990    1.000
    Mg8      Mg       0.41703    0.03595    0.96041    1.000
    O36      O        0.42470    0.98560    0.78050    1.000
    O37      O        0.36949    0.90880    0.60180    1.000
    O38      O        0.14534    0.66720    0.62830    1.000
    O39      O        0.08117    0.71790    0.77120    1.000
    O40      O        0.52100    0.08970    0.94540    1.000
    H29      H        0.53500    0.13400    0.98000    1.000
    C50      C        0.31190    0.89300    0.77430    1.000
    C51      C        0.25490    0.82550    0.71570    1.000
    H30      H        0.25800    0.79800    0.64300    1.000
    C52      C        0.19960    0.79880    0.77770    1.000
    C53      C        0.20240    0.84000    0.89370    1.000
    H31      H        0.16100    0.82900    0.94000    1.000
    C54      C        0.26200    0.90480    0.94740    1.000
    H32      H        0.26500    0.92900    0.02300    1.000
    C55      C        0.37420    0.93180    0.71240    1.000
    C56      C        0.13630    0.72190    0.71940    1.000
    Mg9      Mg       0.00000    0.39659    0.25000    1.000
    Mg10     Mg       0.50000    0.89659    0.25000    1.000
    Mg11     Mg       0.00000    0.60341    0.75000    1.000
    Mg12     Mg       0.50000    0.10341    0.75000    1.000
