# CIF file generated by openbabel 3.1.0, see https://openbabel.org
data_I
_chemical_name_common 'image0'
_cell_length_a 16.6121
_cell_length_b 16.6202
_cell_length_c 22.1631
_cell_angle_alpha 90
_cell_angle_beta 90
_cell_angle_gamma 90
_space_group_name_H-M_alt 'P 1'
_space_group_name_Hall 'P 1'
loop_
    _symmetry_equiv_pos_as_xyz
    x,y,z
loop_
    _atom_site_label
    _atom_site_type_symbol
    _atom_site_fract_x
    _atom_site_fract_y
    _atom_site_fract_z
    _atom_site_occupancy
    O1       O        0.91631    0.41562    0.55085    1.000
    C1       C        0.79920    0.29890    0.55370    1.000
    H1       H        0.81980    0.31970    0.59050    1.000
    C2       C        0.73960    0.24010    0.55550    1.000
    H2       H        0.71920    0.22080    0.59280    1.000
    N1       N        0.94070    0.43870    0.93400    1.000
    C3       C        0.04970    0.54460    0.68490    1.000
    H3       H        0.08720    0.57720    0.66370    1.000
    C4       C        0.05040    0.54670    0.74550    1.000
    H4       H        0.08730    0.58190    0.76480    1.000
    C5       C        0.94610    0.44530    0.87440    1.000
    C6       C        0.89030    0.39110    0.84560    1.000
    H5       H        0.88220    0.38480    0.80340    1.000
    C7       C        0.85200    0.35120    0.88970    1.000
    H6       H        0.82070    0.30360    0.88630    1.000
    C8       C        0.86930    0.39690    0.94360    1.000
    O2       O        0.08369    0.58438    0.55085    1.000
    C9       C        0.20080    0.70110    0.55370    1.000
    H7       H        0.18020    0.68030    0.59050    1.000
    C10      C        0.26040    0.75990    0.55550    1.000
    H8       H        0.28080    0.77920    0.59280    1.000
    N2       N        0.05930    0.56130    0.93400    1.000
    C11      C        0.95030    0.45540    0.68490    1.000
    H9       H        0.91280    0.42280    0.66370    1.000
    C12      C        0.94960    0.45330    0.74550    1.000
    H10      H        0.91270    0.41810    0.76480    1.000
    C13      C        0.05390    0.55470    0.87440    1.000
    C14      C        0.10970    0.60890    0.84560    1.000
    H11      H        0.11780    0.61520    0.80340    1.000
    C15      C        0.14800    0.64880    0.88970    1.000
    H12      H        0.17930    0.69640    0.88630    1.000
    C16      C        0.13070    0.60310    0.94360    1.000
    O3       O        0.08369    0.41562    0.44915    1.000
    C17      C        0.20080    0.29890    0.44630    1.000
    H13      H        0.18020    0.31970    0.40950    1.000
    C18      C        0.26040    0.24010    0.44450    1.000
    H14      H        0.28080    0.22080    0.40720    1.000
    N3       N        0.05930    0.43870    0.06600    1.000
    C19      C        0.95030    0.54460    0.31510    1.000
    H15      H        0.91280    0.57720    0.33630    1.000
    C20      C        0.94960    0.54670    0.25450    1.000
    H16      H        0.91270    0.58190    0.23520    1.000
    C21      C        0.05390    0.44530    0.12560    1.000
    C22      C        0.10970    0.39110    0.15440    1.000
    H17      H        0.11780    0.38480    0.19660    1.000
    C23      C        0.14800    0.35120    0.11030    1.000
    H18      H        0.17930    0.30360    0.11370    1.000
    C24      C        0.13070    0.39690    0.05640    1.000
    O4       O        0.91631    0.58438    0.44915    1.000
    C25      C        0.79920    0.70110    0.44630    1.000
    H19      H        0.81980    0.68030    0.40950    1.000
    C26      C        0.73960    0.75990    0.44450    1.000
    H20      H        0.71920    0.77920    0.40720    1.000
    N4       N        0.94070    0.56130    0.06600    1.000
    C27      C        0.04970    0.45540    0.31510    1.000
    H21      H        0.08720    0.42280    0.33630    1.000
    C28      C        0.05040    0.45330    0.25450    1.000
    H22      H        0.08730    0.41810    0.23520    1.000
    C29      C        0.94610    0.55470    0.12560    1.000
    C30      C        0.89030    0.60890    0.15440    1.000
    H23      H        0.88220    0.61520    0.19660    1.000
    C31      C        0.85200    0.64880    0.11030    1.000
    H24      H        0.82070    0.69640    0.11370    1.000
    C32      C        0.86930    0.60310    0.05640    1.000
    O5       O        0.08369    0.58438    0.44915    1.000
    C33      C        0.20080    0.70110    0.44630    1.000
    H25      H        0.18020    0.68030    0.40950    1.000
    C34      C        0.26040    0.75990    0.44450    1.000
    H26      H        0.28080    0.77920    0.40720    1.000
    N5       N        0.05930    0.56130    0.06600    1.000
    C35      C        0.95030    0.45540    0.31510    1.000
    H27      H        0.91280    0.42280    0.33630    1.000
    C36      C        0.94960    0.45330    0.25450    1.000
    H28      H        0.91270    0.41810    0.23520    1.000
    C37      C        0.05390    0.55470    0.12560    1.000
    C38      C        0.10970    0.60890    0.15440    1.000
    H29      H        0.11780    0.61520    0.19660    1.000
    C39      C        0.14800    0.64880    0.11030    1.000
    H30      H        0.17930    0.69640    0.11370    1.000
    C40      C        0.13070    0.60310    0.05640    1.000
    O6       O        0.91631    0.41562    0.44915    1.000
    C41      C        0.79920    0.29890    0.44630    1.000
    H31      H        0.81980    0.31970    0.40950    1.000
    C42      C        0.73960    0.24010    0.44450    1.000
    H32      H        0.71920    0.22080    0.40720    1.000
    N6       N        0.94070    0.43870    0.06600    1.000
    C43      C        0.04970    0.54460    0.31510    1.000
    H33      H        0.08720    0.57720    0.33630    1.000
    C44      C        0.05040    0.54670    0.25450    1.000
    H34      H        0.08730    0.58190    0.23520    1.000
    C45      C        0.94610    0.44530    0.12560    1.000
    C46      C        0.89030    0.39110    0.15440    1.000
    H35      H        0.88220    0.38480    0.19660    1.000
    C47      C        0.85200    0.35120    0.11030    1.000
    H36      H        0.82070    0.30360    0.11370    1.000
    C48      C        0.86930    0.39690    0.05640    1.000
    O7       O        0.91631    0.58438    0.55085    1.000
    C49      C        0.79920    0.70110    0.55370    1.000
    H37      H        0.81980    0.68030    0.59050    1.000
    C50      C        0.73960    0.75990    0.55550    1.000
    H38      H        0.71920    0.77920    0.59280    1.000
    N7       N        0.94070    0.56130    0.93400    1.000
    C51      C        0.04970    0.45540    0.68490    1.000
    H39      H        0.08720    0.42280    0.66370    1.000
    C52      C        0.05040    0.45330    0.74550    1.000
    H40      H        0.08730    0.41810    0.76480    1.000
    C53      C        0.94610    0.55470    0.87440    1.000
    C54      C        0.89030    0.60890    0.84560    1.000
    H41      H        0.88220    0.61520    0.80340    1.000
    C55      C        0.85200    0.64880    0.88970    1.000
    H42      H        0.82070    0.69640    0.88630    1.000
    C56      C        0.86930    0.60310    0.94360    1.000
    O8       O        0.08369    0.41562    0.55085    1.000
    C57      C        0.20080    0.29890    0.55370    1.000
    H43      H        0.18020    0.31970    0.59050    1.000
    C58      C        0.26040    0.24010    0.55550    1.000
    H44      H        0.28080    0.22080    0.59280    1.000
    N8       N        0.05930    0.43870    0.93400    1.000
    C59      C        0.95030    0.54460    0.68490    1.000
    H45      H        0.91280    0.57720    0.66370    1.000
    C60      C        0.94960    0.54670    0.74550    1.000
    H46      H        0.91270    0.58190    0.76480    1.000
    C61      C        0.05390    0.44530    0.87440    1.000
    C62      C        0.10970    0.39110    0.84560    1.000
    H47      H        0.11780    0.38480    0.80340    1.000
    C63      C        0.14800    0.35120    0.88970    1.000
    H48      H        0.17930    0.30360    0.88630    1.000
    C64      C        0.13070    0.39690    0.94360    1.000
    Zn1      Zn       0.00000    0.50000    0.56538    1.000
    N9       N        0.00000    0.50000    0.65350    1.000
    C65      C        0.00000    0.50000    0.78130    1.000
    C66      C        0.00000    0.50000    0.85030    1.000
    Zn2      Zn       0.00000    0.50000    0.43462    1.000
    N10      N        0.00000    0.50000    0.34650    1.000
    C67      C        0.00000    0.50000    0.21870    1.000
    C68      C        0.00000    0.50000    0.14970    1.000
    Zn3      Zn       0.50000    0.00000    0.50000    1.000
    N11      N        0.50000    0.12330    0.50000    1.000
    N12      N        0.50000    0.87670    0.50000    1.000
    N13      N        0.62150    0.00000    0.50000    1.000
    N14      N        0.37850    0.00000    0.50000    1.000
    C69      C        0.89320    0.39360    0.50000    1.000
    C70      C        0.82920    0.32780    0.50000    1.000
    C71      C        0.71020    0.21010    0.50000    1.000
    C72      C        0.64580    0.14600    0.50000    1.000
    C73      C        0.67290    0.06550    0.50000    1.000
    C74      C        0.75530    0.04000    0.50000    1.000
    H49      H        0.80130    0.07400    0.50000    1.000
    C75      C        0.56550    0.17200    0.50000    1.000
    C76      C        0.54040    0.25530    0.50000    1.000
    H50      H        0.57450    0.30120    0.50000    1.000
    C77      C        0.10680    0.60640    0.50000    1.000
    C78      C        0.17080    0.67220    0.50000    1.000
    C79      C        0.28980    0.78990    0.50000    1.000
    C80      C        0.35420    0.85400    0.50000    1.000
    C81      C        0.32710    0.93450    0.50000    1.000
    C82      C        0.24470    0.96000    0.50000    1.000
    H51      H        0.19870    0.92600    0.50000    1.000
    C83      C        0.43450    0.82800    0.50000    1.000
    C84      C        0.45960    0.74470    0.50000    1.000
    H52      H        0.42550    0.69880    0.50000    1.000
    C85      C        0.10680    0.39360    0.50000    1.000
    C86      C        0.17080    0.32780    0.50000    1.000
    C87      C        0.28980    0.21010    0.50000    1.000
    C88      C        0.35420    0.14600    0.50000    1.000
    C89      C        0.32710    0.06550    0.50000    1.000
    C90      C        0.24470    0.04000    0.50000    1.000
    H53      H        0.19870    0.07400    0.50000    1.000
    C91      C        0.43450    0.17200    0.50000    1.000
    C92      C        0.45960    0.25530    0.50000    1.000
    H54      H        0.42550    0.30120    0.50000    1.000
    C93      C        0.89320    0.60640    0.50000    1.000
    C94      C        0.82920    0.67220    0.50000    1.000
    C95      C        0.71020    0.78990    0.50000    1.000
    C96      C        0.64580    0.85400    0.50000    1.000
    C97      C        0.67290    0.93450    0.50000    1.000
    C98      C        0.75530    0.96000    0.50000    1.000
    H55      H        0.80130    0.92600    0.50000    1.000
    C99      C        0.56550    0.82800    0.50000    1.000
    C100     C        0.54040    0.74470    0.50000    1.000
    H56      H        0.57450    0.69880    0.50000    1.000
    Mn1      Mn       0.00000    0.50000    0.00000    1.000
    C101     C        0.87900    0.36100    0.00000    1.000
    C102     C        0.81300    0.29820    0.00000    1.000
    C103     C        0.73310    0.33030    0.00000    1.000
    C104     C        0.66480    0.27880    0.00000    1.000
    C105     C        0.67670    0.19410    0.00000    1.000
    C106     C        0.75650    0.16160    0.00000    1.000
    C107     C        0.82480    0.21360    0.00000    1.000
    F1       F        0.72390    0.41080    0.00000    1.000
    F2       F        0.58990    0.31060    0.00000    1.000
    F3       F        0.61280    0.14300    0.00000    1.000
    F4       F        0.76700    0.08140    0.00000    1.000
    F5       F        0.89990    0.18300    0.00000    1.000
    C108     C        0.12100    0.63900    0.00000    1.000
    C109     C        0.18700    0.70180    0.00000    1.000
    C110     C        0.26690    0.66970    0.00000    1.000
    C111     C        0.33520    0.72120    0.00000    1.000
    C112     C        0.32330    0.80590    0.00000    1.000
    C113     C        0.24350    0.83840    0.00000    1.000
    C114     C        0.17520    0.78640    0.00000    1.000
    F6       F        0.27610    0.58920    0.00000    1.000
    F7       F        0.41010    0.68940    0.00000    1.000
    F8       F        0.38720    0.85700    0.00000    1.000
    F9       F        0.23300    0.91860    0.00000    1.000
    F10      F        0.10010    0.81700    0.00000    1.000
    C115     C        0.12100    0.36100    0.00000    1.000
    C116     C        0.18700    0.29820    0.00000    1.000
    C117     C        0.26690    0.33030    0.00000    1.000
    C118     C        0.33520    0.27880    0.00000    1.000
    C119     C        0.32330    0.19410    0.00000    1.000
    C120     C        0.24350    0.16160    0.00000    1.000
    C121     C        0.17520    0.21360    0.00000    1.000
    F11      F        0.27610    0.41080    0.00000    1.000
    F12      F        0.41010    0.31060    0.00000    1.000
    F13      F        0.38720    0.14300    0.00000    1.000
    F14      F        0.23300    0.08140    0.00000    1.000
    F15      F        0.10010    0.18300    0.00000    1.000
    C122     C        0.87900    0.63900    0.00000    1.000
    C123     C        0.81300    0.70180    0.00000    1.000
    C124     C        0.73310    0.66970    0.00000    1.000
    C125     C        0.66480    0.72120    0.00000    1.000
    C126     C        0.67670    0.80590    0.00000    1.000
    C127     C        0.75650    0.83840    0.00000    1.000
    C128     C        0.82480    0.78640    0.00000    1.000
    F16      F        0.72390    0.58920    0.00000    1.000
    F17      F        0.58990    0.68940    0.00000    1.000
    F18      F        0.61280    0.85700    0.00000    1.000
    F19      F        0.76700    0.91860    0.00000    1.000
    F20      F        0.89990    0.81700    0.00000    1.000
