# CIF file generated by openbabel 3.1.0, see https://openbabel.org
data_I
_chemical_name_common 'image0'
_cell_length_a 15.4562
_cell_length_b 16.278
_cell_length_c 18.346
_cell_angle_alpha 108.559
_cell_angle_beta 103.799
_cell_angle_gamma 108.453
_space_group_name_H-M_alt 'P 1'
_space_group_name_Hall 'P 1'
loop_
    _symmetry_equiv_pos_as_xyz
    x,y,z
loop_
    _atom_site_label
    _atom_site_type_symbol
    _atom_site_fract_x
    _atom_site_fract_y
    _atom_site_fract_z
    _atom_site_occupancy
    C1       C        0.55400    0.02450    0.68980    1.000
    C2       C        0.59490    0.12740    0.74480    1.000
    C3       C        0.64370    0.19300    0.72200    1.000
    H1       H        0.65610    0.17350    0.67360    1.000
    C4       C        0.67620    0.29160    0.77160    1.000
    H2       H        0.70930    0.33680    0.75550    1.000
    C5       C        0.65890    0.32120    0.84420    1.000
    C6       C        0.61150    0.25480    0.86780    1.000
    H3       H        0.60040    0.27470    0.91670    1.000
    C7       C        0.57960    0.15810    0.82020    1.000
    H4       H        0.54820    0.11340    0.83760    1.000
    C8       C        0.56220    0.75350    0.68110    1.000
    C9       C        0.59280    0.70730    0.73150    1.000
    C10      C        0.52840    0.61360    0.71630    1.000
    H5       H        0.46640    0.58190    0.67390    1.000
    C11      C        0.55730    0.57020    0.76350    1.000
    H6       H        0.51590    0.50790    0.75140    1.000
    C12      C        0.64890    0.61830    0.83060    1.000
    C13      C        0.71290    0.70960    0.84310    1.000
    H7       H        0.77520    0.74120    0.88500    1.000
    C14      C        0.68460    0.75260    0.79440    1.000
    H8       H        0.72800    0.81300    0.80400    1.000
    C15      C        0.30850    0.80350    0.47630    1.000
    C16      C        0.20860    0.77210    0.41260    1.000
    C17      C        0.13140    0.69910    0.40820    1.000
    H9       H        0.14020    0.66890    0.44280    1.000
    C18      C        0.03390    0.66930    0.34780    1.000
    H10      H        0.98050    0.61710    0.34150    1.000
    C19      C        0.02070    0.71780    0.30020    1.000
    C20      C        0.09330    0.80110    0.32140    1.000
    H11      H        0.08090    0.84360    0.30120    1.000
    C21      C        0.18720    0.82590    0.37300    1.000
    H12      H        0.23810    0.88150    0.38140    1.000
    C22      C        0.55690    0.82290    0.44000    1.000
    C23      C        0.59660    0.77200    0.38020    1.000
    C24      C        0.59110    0.78400    0.30760    1.000
    H13      H        0.55620    0.81700    0.29240    1.000
    C25      C        0.63630    0.74790    0.25840    1.000
    H14      H        0.63060    0.75590    0.20970    1.000
    C26      C        0.69110    0.69930    0.27990    1.000
    C27      C        0.69260    0.68410    0.35230    1.000
    H15      H        0.72690    0.65090    0.36800    1.000
    C28      C        0.64410    0.71780    0.39900    1.000
    H16      H        0.64290    0.70410    0.44440    1.000
    C29      C        0.65910    0.47400    0.84510    1.000
    H17      H        0.62820    0.44120    0.78770    1.000
    C30      C        0.67630    0.57080    0.88290    1.000
    C31      C        0.71780    0.61580    0.97040    1.000
    C32      C        0.74700    0.57070    0.01660    1.000
    C33      C        0.73340    0.47660    0.97590    1.000
    C34      C        0.68580    0.42590    0.88940    1.000
    C35      C        0.78660    0.61860    0.10820    1.000
    C36      C        0.72360    0.63160    0.14970    1.000
    C37      C        0.75380    0.67430    0.23610    1.000
    C38      C        0.85200    0.70040    0.28110    1.000
    H18      H        0.87390    0.72760    0.33880    1.000
    C39      C        0.91880    0.68860    0.24550    1.000
    C40      C        0.88520    0.64890    0.15760    1.000
    C41      C        0.84330    0.41040    0.01110    1.000
    H19      H        0.86090    0.38030    0.04590    1.000
    H20      H        0.82290    0.36750    0.95400    1.000
    H21      H        0.89910    0.46810    0.02510    1.000
    C42      C        0.65430    0.73220    0.00680    1.000
    H22      H        0.67610    0.79960    0.03820    1.000
    H23      H        0.61750    0.71410    0.94970    1.000
    H24      H        0.61320    0.69720    0.02850    1.000
    C43      C        0.56090    0.51230    0.09810    1.000
    H25      H        0.49430    0.49390    0.06370    1.000
    H26      H        0.58100    0.46280    0.07570    1.000
    H27      H        0.56470    0.52150    0.15330    1.000
    C44      C        0.99180    0.70740    0.09440    1.000
    H28      H        0.03550    0.69260    0.06860    1.000
    H29      H        0.94030    0.71060    0.05570    1.000
    H30      H        0.02790    0.76810    0.14220    1.000
    Cd1      Cd       0.48569    0.83397    0.58842    1.000
    O1       O        0.57550    0.99800    0.62500    1.000
    O2       O        0.49930    0.96150    0.70600    1.000
    O3       O        0.47010    0.71830    0.63410    1.000
    O4       O        0.62130    0.82970    0.68520    1.000
    O5       O        0.36970    0.88320    0.49850    1.000
    O6       O        0.32350    0.74940    0.50500    1.000
    O7       O        0.53700    0.78540    0.48800    1.000
    O8       O        0.54900    0.89490    0.43490    1.000
    O9       O        0.76430    0.43290    0.02340    1.000
    O10      O        0.73710    0.71100    0.01280    1.000
    O11      O        0.62510    0.60070    0.10040    1.000
    O12      O        0.94960    0.63430    0.11950    1.000
    C45      C        0.44600    0.97550    0.31020    1.000
    C46      C        0.40510    0.87260    0.25520    1.000
    C47      C        0.35630    0.80700    0.27800    1.000
    H31      H        0.34390    0.82650    0.32640    1.000
    C48      C        0.32380    0.70840    0.22840    1.000
    H32      H        0.29070    0.66320    0.24450    1.000
    C49      C        0.34110    0.67880    0.15580    1.000
    C50      C        0.38850    0.74520    0.13220    1.000
    H33      H        0.39960    0.72530    0.08330    1.000
    C51      C        0.42040    0.84190    0.17980    1.000
    H34      H        0.45180    0.88660    0.16240    1.000
    C52      C        0.43780    0.24650    0.31890    1.000
    C53      C        0.40720    0.29270    0.26850    1.000
    C54      C        0.47160    0.38640    0.28370    1.000
    H35      H        0.53360    0.41810    0.32610    1.000
    C55      C        0.44270    0.42980    0.23650    1.000
    H36      H        0.48410    0.49210    0.24860    1.000
    C56      C        0.35110    0.38170    0.16940    1.000
    C57      C        0.28710    0.29040    0.15690    1.000
    H37      H        0.22480    0.25880    0.11500    1.000
    C58      C        0.31540    0.24740    0.20560    1.000
    H38      H        0.27200    0.18700    0.19600    1.000
    C59      C        0.69150    0.19650    0.52370    1.000
    C60      C        0.79140    0.22790    0.58740    1.000
    C61      C        0.86860    0.30090    0.59180    1.000
    H39      H        0.85980    0.33110    0.55720    1.000
    C62      C        0.96610    0.33070    0.65220    1.000
    H40      H        0.01950    0.38290    0.65850    1.000
    C63      C        0.97930    0.28220    0.69980    1.000
    C64      C        0.90670    0.19890    0.67860    1.000
    H41      H        0.91910    0.15640    0.69880    1.000
    C65      C        0.81280    0.17410    0.62700    1.000
    H42      H        0.76190    0.11850    0.61860    1.000
    C66      C        0.44310    0.17710    0.56000    1.000
    C67      C        0.40340    0.22800    0.61980    1.000
    C68      C        0.40890    0.21600    0.69240    1.000
    H43      H        0.44380    0.18300    0.70760    1.000
    C69      C        0.36370    0.25210    0.74160    1.000
    H44      H        0.36940    0.24410    0.79030    1.000
    C70      C        0.30890    0.30070    0.72010    1.000
    C71      C        0.30740    0.31590    0.64770    1.000
    H45      H        0.27310    0.34910    0.63200    1.000
    C72      C        0.35590    0.28220    0.60100    1.000
    H46      H        0.35710    0.29590    0.55560    1.000
    C73      C        0.34090    0.52600    0.15490    1.000
    H47      H        0.37180    0.55880    0.21230    1.000
    C74      C        0.32370    0.42920    0.11710    1.000
    C75      C        0.28220    0.38420    0.02960    1.000
    C76      C        0.25300    0.42930    0.98340    1.000
    C77      C        0.26660    0.52340    0.02410    1.000
    C78      C        0.31420    0.57410    0.11060    1.000
    C79      C        0.21340    0.38140    0.89180    1.000
    C80      C        0.27640    0.36840    0.85030    1.000
    C81      C        0.24620    0.32570    0.76390    1.000
    C82      C        0.14800    0.29960    0.71890    1.000
    H48      H        0.12610    0.27240    0.66120    1.000
    C83      C        0.08120    0.31140    0.75450    1.000
    C84      C        0.11480    0.35110    0.84240    1.000
    C85      C        0.15670    0.58960    0.98890    1.000
    H49      H        0.13910    0.61970    0.95410    1.000
    H50      H        0.17710    0.63250    0.04600    1.000
    H51      H        0.10090    0.53190    0.97490    1.000
    C86      C        0.34570    0.26780    0.99320    1.000
    H52      H        0.32390    0.20040    0.96180    1.000
    H53      H        0.38250    0.28590    0.05030    1.000
    H54      H        0.38680    0.30280    0.97150    1.000
    C87      C        0.43910    0.48770    0.90190    1.000
    H55      H        0.50570    0.50610    0.93630    1.000
    H56      H        0.41900    0.53720    0.92430    1.000
    H57      H        0.43530    0.47850    0.84670    1.000
    C88      C        0.00820    0.29260    0.90560    1.000
    H58      H        0.96450    0.30740    0.93140    1.000
    H59      H        0.05970    0.28940    0.94430    1.000
    H60      H        0.97210    0.23190    0.85780    1.000
    Cd2      Cd       0.51431    0.16603    0.41158    1.000
    O13      O        0.42450    0.00200    0.37500    1.000
    O14      O        0.50070    0.03850    0.29400    1.000
    O15      O        0.52990    0.28170    0.36590    1.000
    O16      O        0.37870    0.17030    0.31480    1.000
    O17      O        0.63030    0.11680    0.50150    1.000
    O18      O        0.67650    0.25060    0.49500    1.000
    O19      O        0.46300    0.21460    0.51200    1.000
    O20      O        0.45100    0.10510    0.56510    1.000
    O21      O        0.23570    0.56710    0.97660    1.000
    O22      O        0.26290    0.28900    0.98720    1.000
    O23      O        0.37490    0.39930    0.89960    1.000
    O24      O        0.05040    0.36570    0.88050    1.000
    Cd3      Cd       0.50000    0.00000    0.50000    1.000
