# CIF file generated by openbabel 3.1.0, see https://openbabel.org
data_I
_chemical_name_common 'ECASOS_clean'
_cell_length_a 7.0303
_cell_length_b 12.5619
_cell_length_c 15.6408
_cell_angle_alpha 90
_cell_angle_beta 90
_cell_angle_gamma 100.918
_space_group_name_H-M_alt 'P 1'
_space_group_name_Hall 'P 1'
loop_
    _symmetry_equiv_pos_as_xyz
    x,y,z
loop_
    _atom_site_label
    _atom_site_type_symbol
    _atom_site_fract_x
    _atom_site_fract_y
    _atom_site_fract_z
    _atom_site_occupancy
    Cu1      Cu       0.50000    0.00000    0.50000    1.000
    Cu2      Cu       0.00000    0.50000    0.00000    1.000
    Cu3      Cu       0.00000    0.00000    0.50000    1.000
    Cu4      Cu       0.50000    0.50000    0.00000    1.000
    P1       P        0.74084    0.21636    0.41380    1.000
    P2       P        0.26071    0.26823    0.07414    1.000
    P3       P        0.75916    0.28364    0.91380    1.000
    P4       P        0.23929    0.23177    0.57414    1.000
    P5       P        0.25916    0.78364    0.58620    1.000
    P6       P        0.73929    0.73177    0.92586    1.000
    P7       P        0.24084    0.71636    0.08620    1.000
    P8       P        0.76071    0.76823    0.42586    1.000
    H1       H        0.81050    0.20240    0.23240    1.000
    H2       H        0.63220    0.22100    0.11000    1.000
    H3       H        0.18860    0.27690    0.25510    1.000
    H4       H        0.36620    0.25650    0.37740    1.000
    H5       H        0.64160    0.94590    0.32490    1.000
    H6       H        0.57780    0.95240    0.23450    1.000
    H7       H        0.04100    0.26900    0.41100    1.000
    H8       H        0.98800    0.22800    0.06900    1.000
    H9       H        0.68950    0.29760    0.73240    1.000
    H10      H        0.86780    0.27900    0.61000    1.000
    H11      H        0.31140    0.22310    0.75510    1.000
    H12      H        0.13380    0.24350    0.87740    1.000
    H13      H        0.85840    0.55410    0.82490    1.000
    H14      H        0.92220    0.54760    0.73450    1.000
    H15      H        0.45900    0.23100    0.91100    1.000
    H16      H        0.51200    0.27200    0.56900    1.000
    H17      H        0.18950    0.79760    0.76760    1.000
    H18      H        0.36780    0.77900    0.89000    1.000
    H19      H        0.81140    0.72310    0.74490    1.000
    H20      H        0.63380    0.74350    0.62260    1.000
    H21      H        0.35840    0.05410    0.67510    1.000
    H22      H        0.42220    0.04760    0.76550    1.000
    H23      H        0.95900    0.73100    0.58900    1.000
    H24      H        0.01200    0.77200    0.93100    1.000
    H25      H        0.31050    0.70240    0.26760    1.000
    H26      H        0.13220    0.72100    0.39000    1.000
    H27      H        0.68860    0.77690    0.24490    1.000
    H28      H        0.86620    0.75650    0.12260    1.000
    H29      H        0.14160    0.44590    0.17510    1.000
    H30      H        0.07780    0.45240    0.26550    1.000
    H31      H        0.54100    0.76900    0.08900    1.000
    H32      H        0.48800    0.72800    0.43100    1.000
    C1       C        0.60700    0.22820    0.31720    1.000
    C2       C        0.68630    0.21730    0.23710    1.000
    C3       C        0.57930    0.22870    0.16360    1.000
    C4       C        0.39270    0.25170    0.17050    1.000
    C5       C        0.31290    0.26200    0.25040    1.000
    C6       C        0.41990    0.25000    0.32370    1.000
    C7       C        0.10150    0.00590    0.31320    1.000
    C8       C        0.39460    0.97750    0.31410    1.000
    C9       C        0.89300    0.27180    0.81720    1.000
    C10      C        0.81370    0.28270    0.73710    1.000
    C11      C        0.92070    0.27130    0.66360    1.000
    C12      C        0.10730    0.24830    0.67050    1.000
    C13      C        0.18710    0.23800    0.75040    1.000
    C14      C        0.08010    0.25000    0.82370    1.000
    C15      C        0.39850    0.49410    0.81320    1.000
    C16      C        0.10540    0.52250    0.81410    1.000
    C17      C        0.39300    0.77180    0.68280    1.000
    C18      C        0.31370    0.78270    0.76290    1.000
    C19      C        0.42070    0.77130    0.83640    1.000
    C20      C        0.60730    0.74830    0.82950    1.000
    C21      C        0.68710    0.73800    0.74960    1.000
    C22      C        0.58010    0.75000    0.67630    1.000
    C23      C        0.89850    0.99410    0.68680    1.000
    C24      C        0.60540    0.02250    0.68590    1.000
    C25      C        0.10700    0.72820    0.18280    1.000
    C26      C        0.18630    0.71730    0.26290    1.000
    C27      C        0.07930    0.72870    0.33640    1.000
    C28      C        0.89270    0.75170    0.32950    1.000
    C29      C        0.81290    0.76200    0.24960    1.000
    C30      C        0.91990    0.75000    0.17630    1.000
    C31      C        0.60150    0.50590    0.18680    1.000
    C32      C        0.89460    0.47750    0.18590    1.000
    N1       N        0.15350    0.00210    0.39370    1.000
    N2       N        0.34350    0.98560    0.39430    1.000
    N3       N        0.24850    0.99020    0.26070    1.000
    N4       N        0.55540    0.95630    0.28840    1.000
    N5       N        0.34650    0.49790    0.89370    1.000
    N6       N        0.15650    0.51440    0.89430    1.000
    N7       N        0.25150    0.50980    0.76070    1.000
    N8       N        0.94460    0.54370    0.78840    1.000
    N9       N        0.84650    0.99790    0.60630    1.000
    N10      N        0.65650    0.01440    0.60570    1.000
    N11      N        0.75150    0.00980    0.73930    1.000
    N12      N        0.44460    0.04370    0.71160    1.000
    N13      N        0.65350    0.50210    0.10630    1.000
    N14      N        0.84350    0.48560    0.10570    1.000
    N15      N        0.74850    0.49020    0.23930    1.000
    N16      N        0.05540    0.45630    0.21160    1.000
    O1       O        0.95490    0.25150    0.38471    1.000
    O2       O        0.68590    0.29320    0.47951    1.000
    O3       O        0.71140    0.09870    0.44283    1.000
    O4       O        0.29400    0.38640    0.04676    1.000
    O5       O        0.31310    0.19180    0.00697    1.000
    O6       O        0.04650    0.23380    0.10320    1.000
    O7       O        0.54510    0.24850    0.88471    1.000
    O8       O        0.81410    0.20680    0.97951    1.000
    O9       O        0.78860    0.40130    0.94283    1.000
    O10      O        0.20600    0.11360    0.54676    1.000
    O11      O        0.18690    0.30820    0.50697    1.000
    O12      O        0.45350    0.26620    0.60320    1.000
    O13      O        0.04510    0.74850    0.61529    1.000
    O14      O        0.31410    0.70680    0.52049    1.000
    O15      O        0.28860    0.90130    0.55717    1.000
    O16      O        0.70600    0.61360    0.95324    1.000
    O17      O        0.68690    0.80820    0.99303    1.000
    O18      O        0.95350    0.76620    0.89680    1.000
    O19      O        0.45490    0.75150    0.11529    1.000
    O20      O        0.18590    0.79320    0.02049    1.000
    O21      O        0.21140    0.59870    0.05717    1.000
    O22      O        0.79400    0.88640    0.45324    1.000
    O23      O        0.81310    0.69180    0.49303    1.000
    O24      O        0.54650    0.73380    0.39680    1.000
