# CIF file generated by openbabel 3.1.0, see https://openbabel.org
data_I
_chemical_name_common 'AFEDIA_clean'
_cell_length_a 10.2347
_cell_length_b 10.8608
_cell_length_c 13.7452
_cell_angle_alpha 79.053
_cell_angle_beta 78.745
_cell_angle_gamma 86.326
_space_group_name_H-M_alt 'P 1'
_space_group_name_Hall 'P 1'
loop_
    _symmetry_equiv_pos_as_xyz
    x,y,z
loop_
    _atom_site_label
    _atom_site_type_symbol
    _atom_site_fract_x
    _atom_site_fract_y
    _atom_site_fract_z
    _atom_site_occupancy
    Tb1      Tb       0.31928    0.92247    0.29710    1.000
    Tb2      Tb       0.68072    0.07753    0.70290    1.000
    Ni1      Ni       0.00000    0.50000    0.50000    1.000
    H1       H        0.32640    0.66920    0.15410    1.000
    H2       H        0.34640    0.32970    0.07640    1.000
    H3       H        0.28210    0.35980    0.36830    1.000
    H4       H        0.34630    0.77260    0.85110    1.000
    H5       H        0.35390    0.88060    0.69160    1.000
    H6       H        0.36590    0.57430    0.58460    1.000
    H7       H        0.35540    0.45460    0.74260    1.000
    H8       H        0.82410    0.91150    0.28140    1.000
    H9       H        0.69660    0.85160    0.03640    1.000
    H10      H        0.08840    0.84220    0.03950    1.000
    H11      H        0.01820    0.82890    0.71530    1.000
    H12      H        0.03320    0.74690    0.57130    1.000
    H13      H        0.01370    0.40760    0.72380    1.000
    H14      H        0.01030    0.47760    0.86990    1.000
    H15      H        0.37670    0.64610    0.98250    1.000
    H16      H        0.87950    0.83910    0.88180    1.000
    H17      H        0.67360    0.33080    0.84590    1.000
    H18      H        0.65360    0.67030    0.92360    1.000
    H19      H        0.71790    0.64020    0.63170    1.000
    H20      H        0.65370    0.22740    0.14890    1.000
    H21      H        0.64610    0.11940    0.30840    1.000
    H22      H        0.63410    0.42570    0.41540    1.000
    H23      H        0.64460    0.54540    0.25740    1.000
    H24      H        0.17590    0.08850    0.71860    1.000
    H25      H        0.30340    0.14840    0.96360    1.000
    H26      H        0.91160    0.15780    0.96050    1.000
    H27      H        0.98180    0.17110    0.28470    1.000
    H28      H        0.96680    0.25310    0.42870    1.000
    H29      H        0.98630    0.59240    0.27620    1.000
    H30      H        0.98970    0.52240    0.13010    1.000
    H31      H        0.62330    0.35390    0.01750    1.000
    H32      H        0.12050    0.16090    0.11820    1.000
    C1       C        0.29800    0.52670    0.27380    1.000
    C2       C        0.32110    0.58250    0.17230    1.000
    C3       C        0.33620    0.50950    0.09820    1.000
    C4       C        0.33480    0.37960    0.12560    1.000
    C5       C        0.31610    0.32520    0.22670    1.000
    C6       C        0.29640    0.39760    0.30070    1.000
    C7       C        0.31330    0.18540    0.25320    1.000
    C8       C        0.26660    0.60590    0.35470    1.000
    C9       C        0.33480    0.51710    0.91890    1.000
    C10      C        0.34820    0.59970    0.81690    1.000
    C11      C        0.34900    0.72940    0.79840    1.000
    C12      C        0.35390    0.79350    0.70230    1.000
    C13      C        0.36050    0.61450    0.63940    1.000
    C14      C        0.35480    0.54160    0.73430    1.000
    C15      C        0.97420    0.87920    0.16810    1.000
    C16      C        0.84200    0.89490    0.21610    1.000
    C17      C        0.73810    0.88580    0.16750    1.000
    C18      C        0.76600    0.85720    0.06990    1.000
    C19      C        0.89660    0.83730    0.02360    1.000
    C20      C        0.00060    0.85140    0.07200    1.000
    C21      C        0.09110    0.89090    0.21680    1.000
    C22      C        0.59360    0.90190    0.21540    1.000
    C23      C        0.00610    0.70360    0.90820    1.000
    C24      C        0.00920    0.66100    0.80980    1.000
    C25      C        0.01750    0.74260    0.71870    1.000
    C26      C        0.02490    0.69220    0.63290    1.000
    C27      C        0.01520    0.49360    0.72190    1.000
    C28      C        0.01140    0.53470    0.81010    1.000
    C29      C        0.70200    0.47330    0.72620    1.000
    C30      C        0.67890    0.41750    0.82770    1.000
    C31      C        0.66380    0.49050    0.90180    1.000
    C32      C        0.66520    0.62040    0.87440    1.000
    C33      C        0.68390    0.67480    0.77330    1.000
    C34      C        0.70360    0.60240    0.69930    1.000
    C35      C        0.68670    0.81460    0.74680    1.000
    C36      C        0.73340    0.39410    0.64530    1.000
    C37      C        0.66520    0.48290    0.08110    1.000
    C38      C        0.65180    0.40030    0.18310    1.000
    C39      C        0.65100    0.27060    0.20160    1.000
    C40      C        0.64610    0.20650    0.29770    1.000
    C41      C        0.63950    0.38550    0.36060    1.000
    C42      C        0.64520    0.45840    0.26570    1.000
    C43      C        0.02580    0.12080    0.83190    1.000
    C44      C        0.15800    0.10510    0.78390    1.000
    C45      C        0.26190    0.11420    0.83250    1.000
    C46      C        0.23400    0.14280    0.93010    1.000
    C47      C        0.10340    0.16270    0.97640    1.000
    C48      C        0.99940    0.14860    0.92800    1.000
    C49      C        0.90890    0.10910    0.78320    1.000
    C50      C        0.40640    0.09810    0.78460    1.000
    C51      C        0.99390    0.29640    0.09180    1.000
    C52      C        0.99080    0.33900    0.19020    1.000
    C53      C        0.98250    0.25740    0.28130    1.000
    C54      C        0.97510    0.30780    0.36710    1.000
    C55      C        0.98480    0.50640    0.27810    1.000
    C56      C        0.98860    0.46530    0.18990    1.000
    N1       N        0.35290    0.56930    0.99640    1.000
    N2       N        0.35850    0.73870    0.62280    1.000
    N3       N        0.92040    0.79980    0.92810    1.000
    N4       N        0.02080    0.57030    0.63300    1.000
    N5       N        0.64710    0.43070    0.00360    1.000
    N6       N        0.64150    0.26130    0.37720    1.000
    N7       N        0.07960    0.20020    0.07190    1.000
    N8       N        0.97920    0.42970    0.36700    1.000
    O1       O        0.19230    0.56330    0.43550    1.000
    O2       O        0.31890    0.71220    0.33580    1.000
    O3       O        0.32870    0.12950    0.33830    1.000
    O4       O        0.29320    0.12280    0.18990    1.000
    O5       O        0.30880    0.40890    0.92630    1.000
    O6       O        0.07330    0.90530    0.30840    1.000
    O7       O        0.20740    0.88500    0.16670    1.000
    O8       O        0.56030    0.90090    0.30840    1.000
    O9       O        0.50460    0.91500    0.16230    1.000
    O10      O        0.07590    0.64900    0.96670    1.000
    O11      O        0.80770    0.43670    0.56450    1.000
    O12      O        0.68110    0.28780    0.66420    1.000
    O13      O        0.67130    0.87050    0.66170    1.000
    O14      O        0.70680    0.87720    0.81010    1.000
    O15      O        0.69120    0.59110    0.07370    1.000
    O16      O        0.92670    0.09470    0.69160    1.000
    O17      O        0.79260    0.11500    0.83330    1.000
    O18      O        0.43970    0.09910    0.69160    1.000
    O19      O        0.49540    0.08500    0.83770    1.000
    O20      O        0.92410    0.35100    0.03330    1.000
