# CIF file generated by openbabel 3.1.0, see https://openbabel.org
data_I
_chemical_name_common 'image0'
_cell_length_a 10.1792
_cell_length_b 6.7279
_cell_length_c 12.8158
_cell_angle_alpha 90
_cell_angle_beta 111.698
_cell_angle_gamma 90
_space_group_name_H-M_alt 'P 1'
_space_group_name_Hall 'P 1'
loop_
    _symmetry_equiv_pos_as_xyz
    x,y,z
loop_
    _atom_site_label
    _atom_site_type_symbol
    _atom_site_fract_x
    _atom_site_fract_y
    _atom_site_fract_z
    _atom_site_occupancy
    N1       N        0.87510    0.41420    0.74262    1.000
    N2       N        0.93490    0.34590    0.84777    1.000
    N3       N        0.12490    0.91420    0.25738    1.000
    N4       N        0.06510    0.84590    0.15223    1.000
    N5       N        0.12490    0.58580    0.25738    1.000
    N6       N        0.06510    0.65410    0.15223    1.000
    N7       N        0.87510    0.08580    0.74262    1.000
    N8       N        0.93490    0.15410    0.84777    1.000
    Co1      Co       0.13120    0.25000    0.26600    1.000
    C1       C        0.39370    0.25000    0.34160    1.000
    C2       C        0.55210    0.25000    0.39150    1.000
    C3       C        0.63020    0.25000    0.32280    1.000
    H1       H        0.58420    0.25000    0.24520    1.000
    C4       C        0.77730    0.25000    0.37000    1.000
    C5       C        0.84570    0.25000    0.48640    1.000
    H2       H        0.94390    0.25000    0.51810    1.000
    C6       C        0.76760    0.25000    0.55540    1.000
    C7       C        0.62070    0.25000    0.50800    1.000
    H3       H        0.56830    0.25000    0.55400    1.000
    C8       C        0.86300    0.25000    0.29530    1.000
    C9       C        0.83960    0.25000    0.67930    1.000
    O1       O        0.33060    0.25000    0.23630    1.000
    O2       O        0.32460    0.25000    0.40460    1.000
    O3       O        0.80080    0.25000    0.19240    1.000
    O4       O        0.99400    0.25000    0.34400    1.000
    O5       O        0.00520    0.25000    0.09537    1.000
    H4       H        0.93900    0.25000    0.10800    1.000
    Co2      Co       0.86880    0.75000    0.73400    1.000
    C10      C        0.60630    0.75000    0.65840    1.000
    C11      C        0.44790    0.75000    0.60850    1.000
    C12      C        0.36980    0.75000    0.67720    1.000
    H5       H        0.41580    0.75000    0.75480    1.000
    C13      C        0.22270    0.75000    0.63000    1.000
    C14      C        0.15430    0.75000    0.51360    1.000
    H6       H        0.05610    0.75000    0.48190    1.000
    C15      C        0.23240    0.75000    0.44460    1.000
    C16      C        0.37930    0.75000    0.49200    1.000
    H7       H        0.43170    0.75000    0.44600    1.000
    C17      C        0.13700    0.75000    0.70470    1.000
    C18      C        0.16040    0.75000    0.32070    1.000
    O6       O        0.66940    0.75000    0.76370    1.000
    O7       O        0.67540    0.75000    0.59540    1.000
    O8       O        0.19920    0.75000    0.80760    1.000
    O9       O        0.00600    0.75000    0.65600    1.000
    O10      O        0.99480    0.75000    0.90463    1.000
    H8       H        0.06100    0.75000    0.89200    1.000
    Co3      Co       0.00000    0.50000    0.00000    1.000
    Co4      Co       0.00000    0.00000    0.00000    1.000
