# CIF file generated by openbabel 3.1.0, see https://openbabel.org
data_I
_chemical_name_common 'image0'
_cell_length_a 16.2752
_cell_length_b 16.2752
_cell_length_c 17.4231
_cell_angle_alpha 90
_cell_angle_beta 90
_cell_angle_gamma 90
_space_group_name_H-M_alt 'P 1'
_space_group_name_Hall 'P 1'
loop_
    _symmetry_equiv_pos_as_xyz
    x,y,z
loop_
    _atom_site_label
    _atom_site_type_symbol
    _atom_site_fract_x
    _atom_site_fract_y
    _atom_site_fract_z
    _atom_site_occupancy
    C1       C        0.79060    0.21400    0.90920    1.000
    N1       N        0.87908    0.97090    0.73440    1.000
    Mn1      Mn       0.76086    0.22660    0.71896    1.000
    N2       N        0.77446    0.21930    0.84520    1.000
    N3       N        0.87976    0.29493    0.71222    1.000
    N4       N        0.82526    0.10668    0.70949    1.000
    N5       N        0.80559    0.84539    0.76649    1.000
    C2       C        0.84639    0.04160    0.72282    1.000
    C3       C        0.83618    0.90650    0.75153    1.000
    C4       C        0.94023    0.32866    0.71940    1.000
    N6       N        0.13945    0.33669    0.77060    1.000
    C5       C        0.07490    0.35042    0.74920    1.000
    C6       C        0.77370    0.22700    0.03690    1.000
    N7       N        0.73810    0.24540    0.09379    1.000
    N8       N        0.00510    0.37780    0.72180    1.000
    N9       N        0.82400    0.22690    0.97840    1.000
    N10      N        0.01170    0.35980    0.69430    1.000
    N11      N        0.81210    0.27480    0.97710    1.000
    N12      N        0.75870    0.16480    0.97860    1.000
    C7       C        0.79280    0.24600    0.90640    1.000
    C8       C        0.76880    0.25820    0.03660    1.000
    C9       C        0.76340    0.19830    0.90580    1.000
    C10      C        0.74200    0.21750    0.04090    1.000
    N13      N        0.99750    0.38240    0.75710    1.000
    N14      N        0.80140    0.18790    0.97960    1.000
    C11      C        0.20940    0.78600    0.90920    1.000
    N15      N        0.12092    0.02910    0.73440    1.000
    Mn2      Mn       0.23914    0.77340    0.71896    1.000
    N16      N        0.22554    0.78070    0.84520    1.000
    N17      N        0.12024    0.70507    0.71222    1.000
    N18      N        0.17474    0.89332    0.70949    1.000
    N19      N        0.19441    0.15461    0.76649    1.000
    C12      C        0.15361    0.95840    0.72282    1.000
    C13      C        0.16382    0.09350    0.75153    1.000
    C14      C        0.05977    0.67134    0.71940    1.000
    N20      N        0.86055    0.66331    0.77060    1.000
    C15      C        0.92510    0.64958    0.74920    1.000
    C16      C        0.22630    0.77300    0.03690    1.000
    N21      N        0.26190    0.75460    0.09379    1.000
    N22      N        0.99490    0.62220    0.72180    1.000
    N23      N        0.17600    0.77310    0.97840    1.000
    N24      N        0.98830    0.64020    0.69430    1.000
    N25      N        0.18790    0.72520    0.97710    1.000
    N26      N        0.24130    0.83520    0.97860    1.000
    C17      C        0.20720    0.75400    0.90640    1.000
    C18      C        0.23120    0.74180    0.03660    1.000
    C19      C        0.23660    0.80170    0.90580    1.000
    C20      C        0.25800    0.78250    0.04090    1.000
    N27      N        0.00250    0.61760    0.75710    1.000
    N28      N        0.19860    0.81210    0.97960    1.000
    C21      C        0.21400    0.20940    0.09080    1.000
    N29      N        0.97090    0.12092    0.26560    1.000
    Mn3      Mn       0.22660    0.23914    0.28104    1.000
    N30      N        0.21930    0.22554    0.15480    1.000
    N31      N        0.29493    0.12024    0.28778    1.000
    N32      N        0.10668    0.17474    0.29051    1.000
    N33      N        0.84539    0.19441    0.23351    1.000
    C22      C        0.04160    0.15361    0.27718    1.000
    C23      C        0.90650    0.16382    0.24847    1.000
    C24      C        0.32866    0.05977    0.28060    1.000
    N34      N        0.33669    0.86055    0.22940    1.000
    C25      C        0.35042    0.92510    0.25080    1.000
    C26      C        0.22700    0.22630    0.96310    1.000
    N35      N        0.24540    0.26190    0.90621    1.000
    N36      N        0.37780    0.99490    0.27820    1.000
    N37      N        0.22690    0.17600    0.02160    1.000
    N38      N        0.35980    0.98830    0.30570    1.000
    N39      N        0.27480    0.18790    0.02290    1.000
    N40      N        0.16480    0.24130    0.02140    1.000
    C27      C        0.24600    0.20720    0.09360    1.000
    C28      C        0.25820    0.23120    0.96340    1.000
    C29      C        0.19830    0.23660    0.09420    1.000
    C30      C        0.21750    0.25800    0.95910    1.000
    N41      N        0.38240    0.00250    0.24290    1.000
    N42      N        0.18790    0.19860    0.02040    1.000
    C31      C        0.78600    0.79060    0.09080    1.000
    N43      N        0.02910    0.87908    0.26560    1.000
    Mn4      Mn       0.77340    0.76086    0.28104    1.000
    N44      N        0.78070    0.77446    0.15480    1.000
    N45      N        0.70507    0.87976    0.28778    1.000
    N46      N        0.89332    0.82526    0.29051    1.000
    N47      N        0.15461    0.80559    0.23351    1.000
    C32      C        0.95840    0.84639    0.27718    1.000
    C33      C        0.09350    0.83618    0.24847    1.000
    C34      C        0.67134    0.94023    0.28060    1.000
    N48      N        0.66331    0.13945    0.22940    1.000
    C35      C        0.64958    0.07490    0.25080    1.000
    C36      C        0.77300    0.77370    0.96310    1.000
    N49      N        0.75460    0.73810    0.90621    1.000
    N50      N        0.62220    0.00510    0.27820    1.000
    N51      N        0.77310    0.82400    0.02160    1.000
    N52      N        0.64020    0.01170    0.30570    1.000
    N53      N        0.72520    0.81210    0.02290    1.000
    N54      N        0.83520    0.75870    0.02140    1.000
    C37      C        0.75400    0.79280    0.09360    1.000
    C38      C        0.74180    0.76880    0.96340    1.000
    C39      C        0.80170    0.76340    0.09420    1.000
    C40      C        0.78250    0.74200    0.95910    1.000
    N55      N        0.61760    0.99750    0.24290    1.000
    N56      N        0.81210    0.80140    0.02040    1.000
    C41      C        0.70940    0.71400    0.59080    1.000
    N57      N        0.62092    0.47090    0.76560    1.000
    Mn5      Mn       0.73914    0.72660    0.78104    1.000
    N58      N        0.72554    0.71930    0.65480    1.000
    N59      N        0.62024    0.79493    0.78778    1.000
    N60      N        0.67474    0.60668    0.79051    1.000
    N61      N        0.69441    0.34539    0.73351    1.000
    C42      C        0.65361    0.54160    0.77718    1.000
    C43      C        0.66382    0.40650    0.74847    1.000
    C44      C        0.55977    0.82866    0.78060    1.000
    N62      N        0.36055    0.83669    0.72940    1.000
    C45      C        0.42510    0.85042    0.75080    1.000
    C46      C        0.72630    0.72700    0.46310    1.000
    N63      N        0.76190    0.74540    0.40621    1.000
    N64      N        0.49490    0.87780    0.77820    1.000
    N65      N        0.67600    0.72690    0.52160    1.000
    N66      N        0.48830    0.85980    0.80570    1.000
    N67      N        0.68790    0.77480    0.52290    1.000
    N68      N        0.74130    0.66480    0.52140    1.000
    C47      C        0.70720    0.74600    0.59360    1.000
    C48      C        0.73120    0.75820    0.46340    1.000
    C49      C        0.73660    0.69830    0.59420    1.000
    C50      C        0.75800    0.71750    0.45910    1.000
    N69      N        0.50250    0.88240    0.74290    1.000
    N70      N        0.69860    0.68790    0.52040    1.000
    C51      C        0.29060    0.28600    0.59080    1.000
    N71      N        0.37908    0.52910    0.76560    1.000
    Mn6      Mn       0.26086    0.27340    0.78104    1.000
    N72      N        0.27446    0.28070    0.65480    1.000
    N73      N        0.37976    0.20507    0.78778    1.000
    N74      N        0.32526    0.39332    0.79051    1.000
    N75      N        0.30559    0.65461    0.73351    1.000
    C52      C        0.34639    0.45840    0.77718    1.000
    C53      C        0.33618    0.59350    0.74847    1.000
    C54      C        0.44023    0.17134    0.78060    1.000
    N76      N        0.63945    0.16331    0.72940    1.000
    C55      C        0.57490    0.14958    0.75080    1.000
    C56      C        0.27370    0.27300    0.46310    1.000
    N77      N        0.23810    0.25460    0.40621    1.000
    N78      N        0.50510    0.12220    0.77820    1.000
    N79      N        0.32400    0.27310    0.52160    1.000
    N80      N        0.51170    0.14020    0.80570    1.000
    N81      N        0.31210    0.22520    0.52290    1.000
    N82      N        0.25870    0.33520    0.52140    1.000
    C57      C        0.29280    0.25400    0.59360    1.000
    C58      C        0.26880    0.24180    0.46340    1.000
    C59      C        0.26340    0.30170    0.59420    1.000
    C60      C        0.24200    0.28250    0.45910    1.000
    N83      N        0.49750    0.11760    0.74290    1.000
    N84      N        0.30140    0.31210    0.52040    1.000
    C61      C        0.28600    0.70940    0.40920    1.000
    N85      N        0.52910    0.62092    0.23440    1.000
    Mn7      Mn       0.27340    0.73914    0.21896    1.000
    N86      N        0.28070    0.72554    0.34520    1.000
    N87      N        0.20507    0.62024    0.21222    1.000
    N88      N        0.39332    0.67474    0.20949    1.000
    N89      N        0.65461    0.69441    0.26649    1.000
    C62      C        0.45840    0.65361    0.22282    1.000
    C63      C        0.59350    0.66382    0.25153    1.000
    C64      C        0.17134    0.55977    0.21940    1.000
    N90      N        0.16331    0.36055    0.27060    1.000
    C65      C        0.14958    0.42510    0.24920    1.000
    C66      C        0.27300    0.72630    0.53690    1.000
    N91      N        0.25460    0.76190    0.59379    1.000
    N92      N        0.12220    0.49490    0.22180    1.000
    N93      N        0.27310    0.67600    0.47840    1.000
    N94      N        0.14020    0.48830    0.19430    1.000
    N95      N        0.22520    0.68790    0.47710    1.000
    N96      N        0.33520    0.74130    0.47860    1.000
    C67      C        0.25400    0.70720    0.40640    1.000
    C68      C        0.24180    0.73120    0.53660    1.000
    C69      C        0.30170    0.73660    0.40580    1.000
    C70      C        0.28250    0.75800    0.54090    1.000
    N97      N        0.11760    0.50250    0.25710    1.000
    N98      N        0.31210    0.69860    0.47960    1.000
    C71      C        0.71400    0.29060    0.40920    1.000
    N99      N        0.47090    0.37908    0.23440    1.000
    Mn8      Mn       0.72660    0.26086    0.21896    1.000
    N100     N        0.71930    0.27446    0.34520    1.000
    N101     N        0.79493    0.37976    0.21222    1.000
    N102     N        0.60668    0.32526    0.20949    1.000
    N103     N        0.34539    0.30559    0.26649    1.000
    C72      C        0.54160    0.34639    0.22282    1.000
    C73      C        0.40650    0.33618    0.25153    1.000
    C74      C        0.82866    0.44023    0.21940    1.000
    N104     N        0.83669    0.63945    0.27060    1.000
    C75      C        0.85042    0.57490    0.24920    1.000
    C76      C        0.72700    0.27370    0.53690    1.000
    N105     N        0.74540    0.23810    0.59379    1.000
    N106     N        0.87780    0.50510    0.22180    1.000
    N107     N        0.72690    0.32400    0.47840    1.000
    N108     N        0.85980    0.51170    0.19430    1.000
    N109     N        0.77480    0.31210    0.47710    1.000
    N110     N        0.66480    0.25870    0.47860    1.000
    C77      C        0.74600    0.29280    0.40640    1.000
    C78      C        0.75820    0.26880    0.53660    1.000
    C79      C        0.69830    0.26340    0.40580    1.000
    C80      C        0.71750    0.24200    0.54090    1.000
    N111     N        0.88240    0.49750    0.25710    1.000
    N112     N        0.68790    0.30140    0.47960    1.000
