# CIF file generated by openbabel 3.1.0, see https://openbabel.org
data_I
_chemical_name_common 'image0'
_cell_length_a 16.2107
_cell_length_b 14.9781
_cell_length_c 7.9573
_cell_angle_alpha 90
_cell_angle_beta 92.069
_cell_angle_gamma 90
_space_group_name_H-M_alt 'P 1'
_space_group_name_Hall 'P 1'
loop_
    _symmetry_equiv_pos_as_xyz
    x,y,z
loop_
    _atom_site_label
    _atom_site_type_symbol
    _atom_site_fract_x
    _atom_site_fract_y
    _atom_site_fract_z
    _atom_site_occupancy
    Ag1      Ag       0.02724    0.26053    0.39942    1.000
    Tb1      Tb       0.54616    0.38364    0.95109    1.000
    C1       C        0.86760    0.32860    0.54060    1.000
    H1       H        0.89410    0.38270    0.52320    1.000
    C2       C        0.78985    0.32920    0.60660    1.000
    H2       H        0.76500    0.38290    0.63460    1.000
    C3       C        0.74937    0.24911    0.63060    1.000
    C4       C        0.78861    0.17110    0.58860    1.000
    H3       H        0.76290    0.11630    0.60300    1.000
    C5       C        0.86702    0.17520    0.52450    1.000
    H4       H        0.89340    0.12230    0.49700    1.000
    C6       C        0.66426    0.24908    0.70010    1.000
    C7       C        0.21140    0.25290    0.29390    1.000
    H5       H        0.20890    0.19300    0.32440    1.000
    C8       C        0.28536    0.28730    0.24220    1.000
    H6       H        0.33170    0.25090    0.23780    1.000
    C9       C        0.28995    0.37570    0.19740    1.000
    C10      C        0.21958    0.42700    0.20410    1.000
    H7       H        0.22070    0.48700    0.17430    1.000
    C11      C        0.14740    0.38850    0.25540    1.000
    H8       H        0.10000    0.42350    0.25810    1.000
    C12      C        0.36818    0.41850    0.14100    1.000
    C13      C        0.42970    0.45765    0.71230    1.000
    C14      C        0.36350    0.49300    0.59490    1.000
    H9       H        0.32020    0.44950    0.58190    1.000
    H10      H        0.34150    0.54710    0.63990    1.000
    H11      H        0.38620    0.50490    0.48740    1.000
    N1       N        0.90607    0.25295    0.50100    1.000
    N2       N        0.14304    0.30310    0.30140    1.000
    O1       O        0.64283    0.31548    0.78170    1.000
    O2       O        0.61935    0.18103    0.67200    1.000
    O3       O        0.42524    0.36614    0.09800    1.000
    O4       O        0.37085    0.50152    0.14190    1.000
    O5       O        0.45016    0.50164    0.84250    1.000
    O6       O        0.46498    0.38449    0.68690    1.000
    Ag2      Ag       0.97276    0.76053    0.10058    1.000
    Tb2      Tb       0.45384    0.88364    0.54891    1.000
    C15      C        0.13240    0.82860    0.95940    1.000
    H12      H        0.10590    0.88270    0.97680    1.000
    C16      C        0.21015    0.82920    0.89340    1.000
    H13      H        0.23500    0.88290    0.86540    1.000
    C17      C        0.25063    0.74911    0.86940    1.000
    C18      C        0.21139    0.67110    0.91140    1.000
    H14      H        0.23710    0.61630    0.89700    1.000
    C19      C        0.13298    0.67520    0.97550    1.000
    H15      H        0.10660    0.62230    0.00300    1.000
    C20      C        0.33574    0.74908    0.79990    1.000
    C21      C        0.78860    0.75290    0.20610    1.000
    H16      H        0.79110    0.69300    0.17560    1.000
    C22      C        0.71464    0.78730    0.25780    1.000
    H17      H        0.66830    0.75090    0.26220    1.000
    C23      C        0.71005    0.87570    0.30260    1.000
    C24      C        0.78042    0.92700    0.29590    1.000
    H18      H        0.77930    0.98700    0.32570    1.000
    C25      C        0.85260    0.88850    0.24460    1.000
    H19      H        0.90000    0.92350    0.24190    1.000
    C26      C        0.63182    0.91850    0.35900    1.000
    C27      C        0.57030    0.95765    0.78770    1.000
    C28      C        0.63650    0.99300    0.90510    1.000
    H20      H        0.67980    0.94950    0.91810    1.000
    H21      H        0.65850    0.04710    0.86010    1.000
    H22      H        0.61380    0.00490    0.01260    1.000
    N3       N        0.09393    0.75295    0.99900    1.000
    N4       N        0.85696    0.80310    0.19860    1.000
    O7       O        0.35717    0.81548    0.71830    1.000
    O8       O        0.38065    0.68103    0.82800    1.000
    O9       O        0.57476    0.86614    0.40200    1.000
    O10      O        0.62915    0.00152    0.35810    1.000
    O11      O        0.54984    0.00164    0.65750    1.000
    O12      O        0.53502    0.88449    0.81310    1.000
    Ag3      Ag       0.97276    0.73947    0.60058    1.000
    Tb3      Tb       0.45384    0.61636    0.04891    1.000
    C29      C        0.13240    0.67140    0.45940    1.000
    H23      H        0.10590    0.61730    0.47680    1.000
    C30      C        0.21015    0.67080    0.39340    1.000
    H24      H        0.23500    0.61710    0.36540    1.000
    C31      C        0.25063    0.75089    0.36940    1.000
    C32      C        0.21139    0.82890    0.41140    1.000
    H25      H        0.23710    0.88370    0.39700    1.000
    C33      C        0.13298    0.82480    0.47550    1.000
    H26      H        0.10660    0.87770    0.50300    1.000
    C34      C        0.33574    0.75092    0.29990    1.000
    C35      C        0.78860    0.74710    0.70610    1.000
    H27      H        0.79110    0.80700    0.67560    1.000
    C36      C        0.71464    0.71270    0.75780    1.000
    H28      H        0.66830    0.74910    0.76220    1.000
    C37      C        0.71005    0.62430    0.80260    1.000
    C38      C        0.78042    0.57300    0.79590    1.000
    H29      H        0.77930    0.51300    0.82570    1.000
    C39      C        0.85260    0.61150    0.74460    1.000
    H30      H        0.90000    0.57650    0.74190    1.000
    C40      C        0.63182    0.58150    0.85900    1.000
    C41      C        0.57030    0.54235    0.28770    1.000
    C42      C        0.63650    0.50700    0.40510    1.000
    H31      H        0.67980    0.55050    0.41810    1.000
    H32      H        0.65850    0.45290    0.36010    1.000
    H33      H        0.61380    0.49510    0.51260    1.000
    N5       N        0.09393    0.74705    0.49900    1.000
    N6       N        0.85696    0.69690    0.69860    1.000
    O13      O        0.35717    0.68452    0.21830    1.000
    O14      O        0.38065    0.81897    0.32800    1.000
    O15      O        0.57476    0.63386    0.90200    1.000
    O16      O        0.62915    0.49848    0.85810    1.000
    O17      O        0.54984    0.49836    0.15750    1.000
    O18      O        0.53502    0.61551    0.31310    1.000
    Ag4      Ag       0.02724    0.23947    0.89942    1.000
    Tb4      Tb       0.54616    0.11636    0.45109    1.000
    C43      C        0.86760    0.17140    0.04060    1.000
    H34      H        0.89410    0.11730    0.02320    1.000
    C44      C        0.78985    0.17080    0.10660    1.000
    H35      H        0.76500    0.11710    0.13460    1.000
    C45      C        0.74937    0.25089    0.13060    1.000
    C46      C        0.78861    0.32890    0.08860    1.000
    H36      H        0.76290    0.38370    0.10300    1.000
    C47      C        0.86702    0.32480    0.02450    1.000
    H37      H        0.89340    0.37770    0.99700    1.000
    C48      C        0.66426    0.25092    0.20010    1.000
    C49      C        0.21140    0.24710    0.79390    1.000
    H38      H        0.20890    0.30700    0.82440    1.000
    C50      C        0.28536    0.21270    0.74220    1.000
    H39      H        0.33170    0.24910    0.73780    1.000
    C51      C        0.28995    0.12430    0.69740    1.000
    C52      C        0.21958    0.07300    0.70410    1.000
    H40      H        0.22070    0.01300    0.67430    1.000
    C53      C        0.14740    0.11150    0.75540    1.000
    H41      H        0.10000    0.07650    0.75810    1.000
    C54      C        0.36818    0.08150    0.64100    1.000
    C55      C        0.42970    0.04235    0.21230    1.000
    C56      C        0.36350    0.00700    0.09490    1.000
    H42      H        0.32020    0.05050    0.08190    1.000
    H43      H        0.34150    0.95290    0.13990    1.000
    H44      H        0.38620    0.99510    0.98740    1.000
    N7       N        0.90607    0.24705    0.00100    1.000
    N8       N        0.14304    0.19690    0.80140    1.000
    O19      O        0.64283    0.18452    0.28170    1.000
    O20      O        0.61935    0.31897    0.17200    1.000
    O21      O        0.42524    0.13386    0.59800    1.000
    O22      O        0.37085    0.99848    0.64190    1.000
    O23      O        0.45016    0.99836    0.34250    1.000
    O24      O        0.46498    0.11551    0.18690    1.000
