# CIF file generated by openbabel 3.1.0, see https://openbabel.org
data_I
_chemical_name_common 'image0'
_cell_length_a 20.071
_cell_length_b 9.698
_cell_length_c 10.986
_cell_angle_alpha 90
_cell_angle_beta 90
_cell_angle_gamma 90
_space_group_name_H-M_alt 'P 1'
_space_group_name_Hall 'P 1'
loop_
    _symmetry_equiv_pos_as_xyz
    x,y,z
loop_
    _atom_site_label
    _atom_site_type_symbol
    _atom_site_fract_x
    _atom_site_fract_y
    _atom_site_fract_z
    _atom_site_occupancy
    Zn1      Zn       0.64744    0.86779    0.50703    1.000
    O1       O        0.55507    0.75930    0.53200    1.000
    N1       N        0.73917    0.00660    0.49330    1.000
    N2       N        0.78083    0.98470    0.59040    1.000
    N3       N        0.81939    0.09200    0.60370    1.000
    N4       N        0.80343    0.18710    0.51680    1.000
    N5       N        0.62390    0.91960    0.33380    1.000
    N6       N        0.61023    0.82070    0.24830    1.000
    N7       N        0.61110    0.87690    0.14200    1.000
    N8       N        0.62513    0.01340    0.15480    1.000
    C1       C        0.75447    0.13270    0.45180    1.000
    C2       C        0.72385    0.20180    0.34480    1.000
    H1       H        0.74730    0.17250    0.27200    1.000
    H2       H        0.73010    0.30060    0.35280    1.000
    C3       C        0.64947    0.17300    0.32780    1.000
    H3       H        0.62780    0.17940    0.40650    1.000
    H4       H        0.63080    0.24440    0.27630    1.000
    C4       C        0.63318    0.03540    0.27310    1.000
    Zn2      Zn       0.14744    0.36779    0.50703    1.000
    O2       O        0.05507    0.25930    0.53200    1.000
    N9       N        0.23917    0.50660    0.49330    1.000
    N10      N        0.28083    0.48470    0.59040    1.000
    N11      N        0.31939    0.59200    0.60370    1.000
    N12      N        0.30343    0.68710    0.51680    1.000
    N13      N        0.12390    0.41960    0.33380    1.000
    N14      N        0.11023    0.32070    0.24830    1.000
    N15      N        0.11110    0.37690    0.14200    1.000
    N16      N        0.12513    0.51340    0.15480    1.000
    C5       C        0.25447    0.63270    0.45180    1.000
    C6       C        0.22385    0.70180    0.34480    1.000
    H5       H        0.24730    0.67250    0.27200    1.000
    H6       H        0.23010    0.80060    0.35280    1.000
    C7       C        0.14947    0.67300    0.32780    1.000
    H7       H        0.12780    0.67940    0.40650    1.000
    H8       H        0.13080    0.74440    0.27630    1.000
    C8       C        0.13318    0.53540    0.27310    1.000
    Zn3      Zn       0.35256    0.13221    0.00703    1.000
    O3       O        0.44493    0.24070    0.03200    1.000
    N17      N        0.26083    0.99340    0.99330    1.000
    N18      N        0.21917    0.01530    0.09040    1.000
    N19      N        0.18061    0.90800    0.10370    1.000
    N20      N        0.19657    0.81290    0.01680    1.000
    N21      N        0.37610    0.08040    0.83380    1.000
    N22      N        0.38977    0.17930    0.74830    1.000
    N23      N        0.38890    0.12310    0.64200    1.000
    N24      N        0.37487    0.98660    0.65480    1.000
    C9       C        0.24553    0.86730    0.95180    1.000
    C10      C        0.27615    0.79820    0.84480    1.000
    H9       H        0.25270    0.82750    0.77200    1.000
    H10      H        0.26990    0.69940    0.85280    1.000
    C11      C        0.35053    0.82700    0.82780    1.000
    H11      H        0.37220    0.82060    0.90650    1.000
    H12      H        0.36920    0.75560    0.77630    1.000
    C12      C        0.36682    0.96460    0.77310    1.000
    Zn4      Zn       0.85256    0.63221    0.00703    1.000
    O4       O        0.94493    0.74070    0.03200    1.000
    N25      N        0.76083    0.49340    0.99330    1.000
    N26      N        0.71917    0.51530    0.09040    1.000
    N27      N        0.68061    0.40800    0.10370    1.000
    N28      N        0.69657    0.31290    0.01680    1.000
    N29      N        0.87610    0.58040    0.83380    1.000
    N30      N        0.88977    0.67930    0.74830    1.000
    N31      N        0.88890    0.62310    0.64200    1.000
    N32      N        0.87487    0.48660    0.65480    1.000
    C13      C        0.74553    0.36730    0.95180    1.000
    C14      C        0.77615    0.29820    0.84480    1.000
    H13      H        0.75270    0.32750    0.77200    1.000
    H14      H        0.76990    0.19940    0.85280    1.000
    C15      C        0.85053    0.32700    0.82780    1.000
    H15      H        0.87220    0.32060    0.90650    1.000
    H16      H        0.86920    0.25560    0.77630    1.000
    C16      C        0.86682    0.46460    0.77310    1.000
    Zn5      Zn       0.64744    0.13221    0.00703    1.000
    O5       O        0.55507    0.24070    0.03200    1.000
    N33      N        0.73917    0.99340    0.99330    1.000
    N34      N        0.78083    0.01530    0.09040    1.000
    N35      N        0.81939    0.90800    0.10370    1.000
    N36      N        0.80343    0.81290    0.01680    1.000
    N37      N        0.62390    0.08040    0.83380    1.000
    N38      N        0.61023    0.17930    0.74830    1.000
    N39      N        0.61110    0.12310    0.64200    1.000
    N40      N        0.62513    0.98660    0.65480    1.000
    C17      C        0.75447    0.86730    0.95180    1.000
    C18      C        0.72385    0.79820    0.84480    1.000
    H17      H        0.74730    0.82750    0.77200    1.000
    H18      H        0.73010    0.69940    0.85280    1.000
    C19      C        0.64947    0.82700    0.82780    1.000
    H19      H        0.62780    0.82060    0.90650    1.000
    H20      H        0.63080    0.75560    0.77630    1.000
    C20      C        0.63318    0.96460    0.77310    1.000
    Zn6      Zn       0.14744    0.63221    0.00703    1.000
    O6       O        0.05507    0.74070    0.03200    1.000
    N41      N        0.23917    0.49340    0.99330    1.000
    N42      N        0.28083    0.51530    0.09040    1.000
    N43      N        0.31939    0.40800    0.10370    1.000
    N44      N        0.30343    0.31290    0.01680    1.000
    N45      N        0.12390    0.58040    0.83380    1.000
    N46      N        0.11023    0.67930    0.74830    1.000
    N47      N        0.11110    0.62310    0.64200    1.000
    N48      N        0.12513    0.48660    0.65480    1.000
    C21      C        0.25447    0.36730    0.95180    1.000
    C22      C        0.22385    0.29820    0.84480    1.000
    H21      H        0.24730    0.32750    0.77200    1.000
    H22      H        0.23010    0.19940    0.85280    1.000
    C23      C        0.14947    0.32700    0.82780    1.000
    H23      H        0.12780    0.32060    0.90650    1.000
    H24      H        0.13080    0.25560    0.77630    1.000
    C24      C        0.13318    0.46460    0.77310    1.000
    Zn7      Zn       0.35256    0.86779    0.50703    1.000
    O7       O        0.44493    0.75930    0.53200    1.000
    N49      N        0.26083    0.00660    0.49330    1.000
    N50      N        0.21917    0.98470    0.59040    1.000
    N51      N        0.18061    0.09200    0.60370    1.000
    N52      N        0.19657    0.18710    0.51680    1.000
    N53      N        0.37610    0.91960    0.33380    1.000
    N54      N        0.38977    0.82070    0.24830    1.000
    N55      N        0.38890    0.87690    0.14200    1.000
    N56      N        0.37487    0.01340    0.15480    1.000
    C25      C        0.24553    0.13270    0.45180    1.000
    C26      C        0.27615    0.20180    0.34480    1.000
    H25      H        0.25270    0.17250    0.27200    1.000
    H26      H        0.26990    0.30060    0.35280    1.000
    C27      C        0.35053    0.17300    0.32780    1.000
    H27      H        0.37220    0.17940    0.40650    1.000
    H28      H        0.36920    0.24440    0.27630    1.000
    C28      C        0.36682    0.03540    0.27310    1.000
    Zn8      Zn       0.85256    0.36779    0.50703    1.000
    O8       O        0.94493    0.25930    0.53200    1.000
    N57      N        0.76083    0.50660    0.49330    1.000
    N58      N        0.71917    0.48470    0.59040    1.000
    N59      N        0.68061    0.59200    0.60370    1.000
    N60      N        0.69657    0.68710    0.51680    1.000
    N61      N        0.87610    0.41960    0.33380    1.000
    N62      N        0.88977    0.32070    0.24830    1.000
    N63      N        0.88890    0.37690    0.14200    1.000
    N64      N        0.87487    0.51340    0.15480    1.000
    C29      C        0.74553    0.63270    0.45180    1.000
    C30      C        0.77615    0.70180    0.34480    1.000
    H29      H        0.75270    0.67250    0.27200    1.000
    H30      H        0.76990    0.80060    0.35280    1.000
    C31      C        0.85053    0.67300    0.32780    1.000
    H31      H        0.87220    0.67940    0.40650    1.000
    H32      H        0.86920    0.74440    0.27630    1.000
    C32      C        0.86682    0.53540    0.27310    1.000
    C33      C        0.50000    0.81760    0.53430    1.000
    H33      H        0.50000    0.87390    0.60730    1.000
    H34      H        0.50000    0.88120    0.46620    1.000
    C34      C        0.00000    0.31760    0.53430    1.000
    H35      H        0.00000    0.37390    0.60730    1.000
    H36      H        0.00000    0.38120    0.46620    1.000
    C35      C        0.50000    0.18240    0.03430    1.000
    H37      H        0.50000    0.12610    0.10730    1.000
    H38      H        0.50000    0.11880    0.96620    1.000
    C36      C        0.00000    0.68240    0.03430    1.000
    H39      H        0.00000    0.62610    0.10730    1.000
    H40      H        0.00000    0.61880    0.96620    1.000
