# CIF file generated by openbabel 3.1.0, see https://openbabel.org
data_I
_chemical_name_common 'image0'
_cell_length_a 20.4968
_cell_length_b 20.4968
_cell_length_c 17.8183
_cell_angle_alpha 90
_cell_angle_beta 90
_cell_angle_gamma 90
_space_group_name_H-M_alt 'P 1'
_space_group_name_Hall 'P 1'
loop_
    _symmetry_equiv_pos_as_xyz
    x,y,z
loop_
    _atom_site_label
    _atom_site_type_symbol
    _atom_site_fract_x
    _atom_site_fract_y
    _atom_site_fract_z
    _atom_site_occupancy
    Zn1      Zn       0.25772    0.11906    0.85942    1.000
    C1       C        0.14210    0.21550    0.69890    1.000
    C2       C        0.14370    0.22620    0.62220    1.000
    H1       H        0.17960    0.20980    0.59320    1.000
    C3       C        0.09430    0.26080    0.58730    1.000
    C4       C        0.04090    0.28390    0.62970    1.000
    H2       H        0.00730    0.30920    0.60590    1.000
    C5       C        0.03750    0.27030    0.70650    1.000
    C6       C        0.08800    0.23630    0.74070    1.000
    H3       H        0.08600    0.22690    0.79340    1.000
    C7       C        0.19750    0.18010    0.73650    1.000
    C8       C        0.09250    0.27190    0.50400    1.000
    C9       C        0.97860    0.28970    0.74900    1.000
    O1       O        0.24201    0.15970    0.69700    1.000
    O2       O        0.19216    0.17310    0.80719    1.000
    O3       O        0.13010    0.23660    0.46440    1.000
    O4       O        0.05430    0.31090    0.47680    1.000
    O5       O        0.94565    0.33756    0.72310    1.000
    O6       O        0.96571    0.25720    0.80790    1.000
    Zn2      Zn       0.75772    0.61906    0.35942    1.000
    C10      C        0.64210    0.71550    0.19890    1.000
    C11      C        0.64370    0.72620    0.12220    1.000
    H4       H        0.67960    0.70980    0.09320    1.000
    C12      C        0.59430    0.76080    0.08730    1.000
    C13      C        0.54090    0.78390    0.12970    1.000
    H5       H        0.50730    0.80920    0.10590    1.000
    C14      C        0.53750    0.77030    0.20650    1.000
    C15      C        0.58800    0.73630    0.24070    1.000
    H6       H        0.58600    0.72690    0.29340    1.000
    C16      C        0.69750    0.68010    0.23650    1.000
    C17      C        0.59250    0.77190    0.00400    1.000
    C18      C        0.47860    0.78970    0.24900    1.000
    O7       O        0.74201    0.65970    0.19700    1.000
    O8       O        0.69216    0.67310    0.30719    1.000
    O9       O        0.63010    0.73660    0.96440    1.000
    O10      O        0.55430    0.81090    0.97680    1.000
    O11      O        0.44565    0.83756    0.22310    1.000
    O12      O        0.46571    0.75720    0.30790    1.000
    Zn3      Zn       0.74228    0.88094    0.85942    1.000
    C19      C        0.85790    0.78450    0.69890    1.000
    C20      C        0.85630    0.77380    0.62220    1.000
    H7       H        0.82040    0.79020    0.59320    1.000
    C21      C        0.90570    0.73920    0.58730    1.000
    C22      C        0.95910    0.71610    0.62970    1.000
    H8       H        0.99270    0.69080    0.60590    1.000
    C23      C        0.96250    0.72970    0.70650    1.000
    C24      C        0.91200    0.76370    0.74070    1.000
    H9       H        0.91400    0.77310    0.79340    1.000
    C25      C        0.80250    0.81990    0.73650    1.000
    C26      C        0.90750    0.72810    0.50400    1.000
    C27      C        0.02140    0.71030    0.74900    1.000
    O13      O        0.75799    0.84030    0.69700    1.000
    O14      O        0.80784    0.82690    0.80719    1.000
    O15      O        0.86990    0.76340    0.46440    1.000
    O16      O        0.94570    0.68910    0.47680    1.000
    O17      O        0.05435    0.66244    0.72310    1.000
    O18      O        0.03429    0.74280    0.80790    1.000
    Zn4      Zn       0.24228    0.38094    0.35942    1.000
    C28      C        0.35790    0.28450    0.19890    1.000
    C29      C        0.35630    0.27380    0.12220    1.000
    H10      H        0.32040    0.29020    0.09320    1.000
    C30      C        0.40570    0.23920    0.08730    1.000
    C31      C        0.45910    0.21610    0.12970    1.000
    H11      H        0.49270    0.19080    0.10590    1.000
    C32      C        0.46250    0.22970    0.20650    1.000
    C33      C        0.41200    0.26370    0.24070    1.000
    H12      H        0.41400    0.27310    0.29340    1.000
    C34      C        0.30250    0.31990    0.23650    1.000
    C35      C        0.40750    0.22810    0.00400    1.000
    C36      C        0.52140    0.21030    0.24900    1.000
    O19      O        0.25799    0.34030    0.19700    1.000
    O20      O        0.30784    0.32690    0.30719    1.000
    O21      O        0.36990    0.26340    0.96440    1.000
    O22      O        0.44570    0.18910    0.97680    1.000
    O23      O        0.55435    0.16244    0.22310    1.000
    O24      O        0.53429    0.24280    0.30790    1.000
    Zn5      Zn       0.88094    0.25772    0.85942    1.000
    C37      C        0.78450    0.14210    0.69890    1.000
    C38      C        0.77380    0.14370    0.62220    1.000
    H13      H        0.79020    0.17960    0.59320    1.000
    C39      C        0.73920    0.09430    0.58730    1.000
    C40      C        0.71610    0.04090    0.62970    1.000
    H14      H        0.69080    0.00730    0.60590    1.000
    C41      C        0.72970    0.03750    0.70650    1.000
    C42      C        0.76370    0.08800    0.74070    1.000
    H15      H        0.77310    0.08600    0.79340    1.000
    C43      C        0.81990    0.19750    0.73650    1.000
    C44      C        0.72810    0.09250    0.50400    1.000
    C45      C        0.71030    0.97860    0.74900    1.000
    O25      O        0.84030    0.24201    0.69700    1.000
    O26      O        0.82690    0.19216    0.80719    1.000
    O27      O        0.76340    0.13010    0.46440    1.000
    O28      O        0.68910    0.05430    0.47680    1.000
    O29      O        0.66244    0.94565    0.72310    1.000
    O30      O        0.74280    0.96571    0.80790    1.000
    Zn6      Zn       0.38094    0.75772    0.35942    1.000
    C46      C        0.28450    0.64210    0.19890    1.000
    C47      C        0.27380    0.64370    0.12220    1.000
    H16      H        0.29020    0.67960    0.09320    1.000
    C48      C        0.23920    0.59430    0.08730    1.000
    C49      C        0.21610    0.54090    0.12970    1.000
    H17      H        0.19080    0.50730    0.10590    1.000
    C50      C        0.22970    0.53750    0.20650    1.000
    C51      C        0.26370    0.58800    0.24070    1.000
    H18      H        0.27310    0.58600    0.29340    1.000
    C52      C        0.31990    0.69750    0.23650    1.000
    C53      C        0.22810    0.59250    0.00400    1.000
    C54      C        0.21030    0.47860    0.24900    1.000
    O31      O        0.34030    0.74201    0.19700    1.000
    O32      O        0.32690    0.69216    0.30719    1.000
    O33      O        0.26340    0.63010    0.96440    1.000
    O34      O        0.18910    0.55430    0.97680    1.000
    O35      O        0.16244    0.44565    0.22310    1.000
    O36      O        0.24280    0.46571    0.30790    1.000
    Zn7      Zn       0.11906    0.74228    0.85942    1.000
    C55      C        0.21550    0.85790    0.69890    1.000
    C56      C        0.22620    0.85630    0.62220    1.000
    H19      H        0.20980    0.82040    0.59320    1.000
    C57      C        0.26080    0.90570    0.58730    1.000
    C58      C        0.28390    0.95910    0.62970    1.000
    H20      H        0.30920    0.99270    0.60590    1.000
    C59      C        0.27030    0.96250    0.70650    1.000
    C60      C        0.23630    0.91200    0.74070    1.000
    H21      H        0.22690    0.91400    0.79340    1.000
    C61      C        0.18010    0.80250    0.73650    1.000
    C62      C        0.27190    0.90750    0.50400    1.000
    C63      C        0.28970    0.02140    0.74900    1.000
    O37      O        0.15970    0.75799    0.69700    1.000
    O38      O        0.17310    0.80784    0.80719    1.000
    O39      O        0.23660    0.86990    0.46440    1.000
    O40      O        0.31090    0.94570    0.47680    1.000
    O41      O        0.33756    0.05435    0.72310    1.000
    O42      O        0.25720    0.03429    0.80790    1.000
    Zn8      Zn       0.61906    0.24228    0.35942    1.000
    C64      C        0.71550    0.35790    0.19890    1.000
    C65      C        0.72620    0.35630    0.12220    1.000
    H22      H        0.70980    0.32040    0.09320    1.000
    C66      C        0.76080    0.40570    0.08730    1.000
    C67      C        0.78390    0.45910    0.12970    1.000
    H23      H        0.80920    0.49270    0.10590    1.000
    C68      C        0.77030    0.46250    0.20650    1.000
    C69      C        0.73630    0.41200    0.24070    1.000
    H24      H        0.72690    0.41400    0.29340    1.000
    C70      C        0.68010    0.30250    0.23650    1.000
    C71      C        0.77190    0.40750    0.00400    1.000
    C72      C        0.78970    0.52140    0.24900    1.000
    O43      O        0.65970    0.25799    0.19700    1.000
    O44      O        0.67310    0.30784    0.30719    1.000
    O45      O        0.73660    0.36990    0.96440    1.000
    O46      O        0.81090    0.44570    0.97680    1.000
    O47      O        0.83756    0.55435    0.22310    1.000
    O48      O        0.75720    0.53429    0.30790    1.000
    Zn9      Zn       0.25772    0.88094    0.35942    1.000
    C73      C        0.14210    0.78450    0.19890    1.000
    C74      C        0.14370    0.77380    0.12220    1.000
    H25      H        0.17960    0.79020    0.09320    1.000
    C75      C        0.09430    0.73920    0.08730    1.000
    C76      C        0.04090    0.71610    0.12970    1.000
    H26      H        0.00730    0.69080    0.10590    1.000
    C77      C        0.03750    0.72970    0.20650    1.000
    C78      C        0.08800    0.76370    0.24070    1.000
    H27      H        0.08600    0.77310    0.29340    1.000
    C79      C        0.19750    0.81990    0.23650    1.000
    C80      C        0.09250    0.72810    0.00400    1.000
    C81      C        0.97860    0.71030    0.24900    1.000
    O49      O        0.24201    0.84030    0.19700    1.000
    O50      O        0.19216    0.82690    0.30719    1.000
    O51      O        0.13010    0.76340    0.96440    1.000
    O52      O        0.05430    0.68910    0.97680    1.000
    O53      O        0.94565    0.66244    0.22310    1.000
    O54      O        0.96571    0.74280    0.30790    1.000
    Zn10     Zn       0.75772    0.38094    0.85942    1.000
    C82      C        0.64210    0.28450    0.69890    1.000
    C83      C        0.64370    0.27380    0.62220    1.000
    H28      H        0.67960    0.29020    0.59320    1.000
    C84      C        0.59430    0.23920    0.58730    1.000
    C85      C        0.54090    0.21610    0.62970    1.000
    H29      H        0.50730    0.19080    0.60590    1.000
    C86      C        0.53750    0.22970    0.70650    1.000
    C87      C        0.58800    0.26370    0.74070    1.000
    H30      H        0.58600    0.27310    0.79340    1.000
    C88      C        0.69750    0.31990    0.73650    1.000
    C89      C        0.59250    0.22810    0.50400    1.000
    C90      C        0.47860    0.21030    0.74900    1.000
    O55      O        0.74201    0.34030    0.69700    1.000
    O56      O        0.69216    0.32690    0.80719    1.000
    O57      O        0.63010    0.26340    0.46440    1.000
    O58      O        0.55430    0.18910    0.47680    1.000
    O59      O        0.44565    0.16244    0.72310    1.000
    O60      O        0.46571    0.24280    0.80790    1.000
    Zn11     Zn       0.74228    0.11906    0.35942    1.000
    C91      C        0.85790    0.21550    0.19890    1.000
    C92      C        0.85630    0.22620    0.12220    1.000
    H31      H        0.82040    0.20980    0.09320    1.000
    C93      C        0.90570    0.26080    0.08730    1.000
    C94      C        0.95910    0.28390    0.12970    1.000
    H32      H        0.99270    0.30920    0.10590    1.000
    C95      C        0.96250    0.27030    0.20650    1.000
    C96      C        0.91200    0.23630    0.24070    1.000
    H33      H        0.91400    0.22690    0.29340    1.000
    C97      C        0.80250    0.18010    0.23650    1.000
    C98      C        0.90750    0.27190    0.00400    1.000
    C99      C        0.02140    0.28970    0.24900    1.000
    O61      O        0.75799    0.15970    0.19700    1.000
    O62      O        0.80784    0.17310    0.30719    1.000
    O63      O        0.86990    0.23660    0.96440    1.000
    O64      O        0.94570    0.31090    0.97680    1.000
    O65      O        0.05435    0.33756    0.22310    1.000
    O66      O        0.03429    0.25720    0.30790    1.000
    Zn12     Zn       0.24228    0.61906    0.85942    1.000
    C100     C        0.35790    0.71550    0.69890    1.000
    C101     C        0.35630    0.72620    0.62220    1.000
    H34      H        0.32040    0.70980    0.59320    1.000
    C102     C        0.40570    0.76080    0.58730    1.000
    C103     C        0.45910    0.78390    0.62970    1.000
    H35      H        0.49270    0.80920    0.60590    1.000
    C104     C        0.46250    0.77030    0.70650    1.000
    C105     C        0.41200    0.73630    0.74070    1.000
    H36      H        0.41400    0.72690    0.79340    1.000
    C106     C        0.30250    0.68010    0.73650    1.000
    C107     C        0.40750    0.77190    0.50400    1.000
    C108     C        0.52140    0.78970    0.74900    1.000
    O67      O        0.25799    0.65970    0.69700    1.000
    O68      O        0.30784    0.67310    0.80719    1.000
    O69      O        0.36990    0.73660    0.46440    1.000
    O70      O        0.44570    0.81090    0.47680    1.000
    O71      O        0.55435    0.83756    0.72310    1.000
    O72      O        0.53429    0.75720    0.80790    1.000
    Zn13     Zn       0.88094    0.74228    0.35942    1.000
    C109     C        0.78450    0.85790    0.19890    1.000
    C110     C        0.77380    0.85630    0.12220    1.000
    H37      H        0.79020    0.82040    0.09320    1.000
    C111     C        0.73920    0.90570    0.08730    1.000
    C112     C        0.71610    0.95910    0.12970    1.000
    H38      H        0.69080    0.99270    0.10590    1.000
    C113     C        0.72970    0.96250    0.20650    1.000
    C114     C        0.76370    0.91200    0.24070    1.000
    H39      H        0.77310    0.91400    0.29340    1.000
    C115     C        0.81990    0.80250    0.23650    1.000
    C116     C        0.72810    0.90750    0.00400    1.000
    C117     C        0.71030    0.02140    0.24900    1.000
    O73      O        0.84030    0.75799    0.19700    1.000
    O74      O        0.82690    0.80784    0.30719    1.000
    O75      O        0.76340    0.86990    0.96440    1.000
    O76      O        0.68910    0.94570    0.97680    1.000
    O77      O        0.66244    0.05435    0.22310    1.000
    O78      O        0.74280    0.03429    0.30790    1.000
    Zn14     Zn       0.38094    0.24228    0.85942    1.000
    C118     C        0.28450    0.35790    0.69890    1.000
    C119     C        0.27380    0.35630    0.62220    1.000
    H40      H        0.29020    0.32040    0.59320    1.000
    C120     C        0.23920    0.40570    0.58730    1.000
    C121     C        0.21610    0.45910    0.62970    1.000
    H41      H        0.19080    0.49270    0.60590    1.000
    C122     C        0.22970    0.46250    0.70650    1.000
    C123     C        0.26370    0.41200    0.74070    1.000
    H42      H        0.27310    0.41400    0.79340    1.000
    C124     C        0.31990    0.30250    0.73650    1.000
    C125     C        0.22810    0.40750    0.50400    1.000
    C126     C        0.21030    0.52140    0.74900    1.000
    O79      O        0.34030    0.25799    0.69700    1.000
    O80      O        0.32690    0.30784    0.80719    1.000
    O81      O        0.26340    0.36990    0.46440    1.000
    O82      O        0.18910    0.44570    0.47680    1.000
    O83      O        0.16244    0.55435    0.72310    1.000
    O84      O        0.24280    0.53429    0.80790    1.000
    Zn15     Zn       0.11906    0.25772    0.35942    1.000
    C127     C        0.21550    0.14210    0.19890    1.000
    C128     C        0.22620    0.14370    0.12220    1.000
    H43      H        0.20980    0.17960    0.09320    1.000
    C129     C        0.26080    0.09430    0.08730    1.000
    C130     C        0.28390    0.04090    0.12970    1.000
    H44      H        0.30920    0.00730    0.10590    1.000
    C131     C        0.27030    0.03750    0.20650    1.000
    C132     C        0.23630    0.08800    0.24070    1.000
    H45      H        0.22690    0.08600    0.29340    1.000
    C133     C        0.18010    0.19750    0.23650    1.000
    C134     C        0.27190    0.09250    0.00400    1.000
    C135     C        0.28970    0.97860    0.24900    1.000
    O85      O        0.15970    0.24201    0.19700    1.000
    O86      O        0.17310    0.19216    0.30719    1.000
    O87      O        0.23660    0.13010    0.96440    1.000
    O88      O        0.31090    0.05430    0.97680    1.000
    O89      O        0.33756    0.94565    0.22310    1.000
    O90      O        0.25720    0.96571    0.30790    1.000
    Zn16     Zn       0.61906    0.75772    0.85942    1.000
    C136     C        0.71550    0.64210    0.69890    1.000
    C137     C        0.72620    0.64370    0.62220    1.000
    H46      H        0.70980    0.67960    0.59320    1.000
    C138     C        0.76080    0.59430    0.58730    1.000
    C139     C        0.78390    0.54090    0.62970    1.000
    H47      H        0.80920    0.50730    0.60590    1.000
    C140     C        0.77030    0.53750    0.70650    1.000
    C141     C        0.73630    0.58800    0.74070    1.000
    H48      H        0.72690    0.58600    0.79340    1.000
    C142     C        0.68010    0.69750    0.73650    1.000
    C143     C        0.77190    0.59250    0.50400    1.000
    C144     C        0.78970    0.47860    0.74900    1.000
    O91      O        0.65970    0.74201    0.69700    1.000
    O92      O        0.67310    0.69216    0.80719    1.000
    O93      O        0.73660    0.63010    0.46440    1.000
    O94      O        0.81090    0.55430    0.47680    1.000
    O95      O        0.83756    0.44565    0.72310    1.000
    O96      O        0.75720    0.46571    0.80790    1.000
    Zn17     Zn       0.34443    0.15557    0.71367    1.000
    O97      O        0.34070    0.15930    0.83140    1.000
    Zn18     Zn       0.65557    0.84443    0.71367    1.000
    O98      O        0.65930    0.84070    0.83140    1.000
    Zn19     Zn       0.15557    0.34443    0.21367    1.000
    O99      O        0.15930    0.34070    0.33140    1.000
    Zn20     Zn       0.84443    0.34443    0.71367    1.000
    O100     O        0.84070    0.34070    0.83140    1.000
    Zn21     Zn       0.15557    0.65557    0.71367    1.000
    O101     O        0.15930    0.65930    0.83140    1.000
    Zn22     Zn       0.34443    0.84443    0.21367    1.000
    O102     O        0.34070    0.84070    0.33140    1.000
    Zn23     Zn       0.65557    0.15557    0.21367    1.000
    O103     O        0.65930    0.15930    0.33140    1.000
    Zn24     Zn       0.84443    0.65557    0.21367    1.000
    O104     O        0.84070    0.65930    0.33140    1.000
