# CIF file generated by openbabel 3.1.0, see https://openbabel.org
data_I
_chemical_name_common 'image0'
_cell_length_a 11.126
_cell_length_b 17.361
_cell_length_c 16.119
_cell_angle_alpha 90
_cell_angle_beta 102.4
_cell_angle_gamma 90
_space_group_name_H-M_alt 'P 1'
_space_group_name_Hall 'P 1'
loop_
    _symmetry_equiv_pos_as_xyz
    x,y,z
loop_
    _atom_site_label
    _atom_site_type_symbol
    _atom_site_fract_x
    _atom_site_fract_y
    _atom_site_fract_z
    _atom_site_occupancy
    Cd1      Cd       0.15843    0.44530    0.88325    1.000
    Cd2      Cd       0.33557    0.40609    0.09503    1.000
    O1       O        0.17660    0.55920    0.81380    1.000
    O2       O        0.24460    0.41970    0.76870    1.000
    O3       O        0.02420    0.49170    0.11060    1.000
    O4       O        0.47050    0.16130    0.14790    1.000
    O5       O        0.13360    0.44390    0.02170    1.000
    O6       O        0.34240    0.48810    0.97520    1.000
    O7       O        0.22370    0.16900    0.09080    1.000
    O8       O        0.32440    0.47390    0.66780    1.000
    O9       O        0.22750    0.28550    0.09030    1.000
    O10      O        0.46680    0.29980    0.12010    1.000
    O11      O        0.27340    0.61360    0.72310    1.000
    O12      O        0.46560    0.54610    0.90300    1.000
    C1       C        0.23820    0.55610    0.75840    1.000
    C2       C        0.04420    0.48210    0.03880    1.000
    C3       C        0.44600    0.50960    0.96430    1.000
    C4       C        0.27150    0.47650    0.72770    1.000
    C5       C        0.27420    0.23610    0.09470    1.000
    C6       C        0.41580    0.23510    0.11790    1.000
    O13      O        0.19540    0.16290    0.03480    1.000
    O14      O        0.48860    0.32090    0.18970    1.000
    C7       C        0.23120    0.23250    0.04030    1.000
    Cd3      Cd       0.65843    0.94530    0.88325    1.000
    Cd4      Cd       0.83557    0.90609    0.09503    1.000
    O15      O        0.67660    0.05920    0.81380    1.000
    O16      O        0.74460    0.91970    0.76870    1.000
    O17      O        0.52420    0.99170    0.11060    1.000
    O18      O        0.97050    0.66130    0.14790    1.000
    O19      O        0.63360    0.94390    0.02170    1.000
    O20      O        0.84240    0.98810    0.97520    1.000
    O21      O        0.72370    0.66900    0.09080    1.000
    O22      O        0.82440    0.97390    0.66780    1.000
    O23      O        0.72750    0.78550    0.09030    1.000
    O24      O        0.96680    0.79980    0.12010    1.000
    O25      O        0.77340    0.11360    0.72310    1.000
    O26      O        0.96560    0.04610    0.90300    1.000
    C8       C        0.73820    0.05610    0.75840    1.000
    C9       C        0.54420    0.98210    0.03880    1.000
    C10      C        0.94600    0.00960    0.96430    1.000
    C11      C        0.77150    0.97650    0.72770    1.000
    C12      C        0.77420    0.73610    0.09470    1.000
    C13      C        0.91580    0.73510    0.11790    1.000
    O27      O        0.69540    0.66290    0.03480    1.000
    O28      O        0.98860    0.82090    0.18970    1.000
    C14      C        0.73120    0.73250    0.04030    1.000
    Cd5      Cd       0.84157    0.44530    0.61675    1.000
    Cd6      Cd       0.66443    0.40609    0.40497    1.000
    O29      O        0.82340    0.55920    0.68620    1.000
    O30      O        0.75540    0.41970    0.73130    1.000
    O31      O        0.97580    0.49170    0.38940    1.000
    O32      O        0.52950    0.16130    0.35210    1.000
    O33      O        0.86640    0.44390    0.47830    1.000
    O34      O        0.65760    0.48810    0.52480    1.000
    O35      O        0.77630    0.16900    0.40920    1.000
    O36      O        0.67560    0.47390    0.83220    1.000
    O37      O        0.77250    0.28550    0.40970    1.000
    O38      O        0.53320    0.29980    0.37990    1.000
    O39      O        0.72660    0.61360    0.77690    1.000
    O40      O        0.53440    0.54610    0.59700    1.000
    C15      C        0.76180    0.55610    0.74160    1.000
    C16      C        0.95580    0.48210    0.46120    1.000
    C17      C        0.55400    0.50960    0.53570    1.000
    C18      C        0.72850    0.47650    0.77230    1.000
    C19      C        0.72580    0.23610    0.40530    1.000
    C20      C        0.58420    0.23510    0.38210    1.000
    O41      O        0.80460    0.16290    0.46520    1.000
    O42      O        0.51140    0.32090    0.31030    1.000
    C21      C        0.76880    0.23250    0.45970    1.000
    Cd7      Cd       0.34157    0.94530    0.61675    1.000
    Cd8      Cd       0.16443    0.90609    0.40497    1.000
    O43      O        0.32340    0.05920    0.68620    1.000
    O44      O        0.25540    0.91970    0.73130    1.000
    O45      O        0.47580    0.99170    0.38940    1.000
    O46      O        0.02950    0.66130    0.35210    1.000
    O47      O        0.36640    0.94390    0.47830    1.000
    O48      O        0.15760    0.98810    0.52480    1.000
    O49      O        0.27630    0.66900    0.40920    1.000
    O50      O        0.17560    0.97390    0.83220    1.000
    O51      O        0.27250    0.78550    0.40970    1.000
    O52      O        0.03320    0.79980    0.37990    1.000
    O53      O        0.22660    0.11360    0.77690    1.000
    O54      O        0.03440    0.04610    0.59700    1.000
    C22      C        0.26180    0.05610    0.74160    1.000
    C23      C        0.45580    0.98210    0.46120    1.000
    C24      C        0.05400    0.00960    0.53570    1.000
    C25      C        0.22850    0.97650    0.77230    1.000
    C26      C        0.22580    0.73610    0.40530    1.000
    C27      C        0.08420    0.73510    0.38210    1.000
    O55      O        0.30460    0.66290    0.46520    1.000
    O56      O        0.01140    0.82090    0.31030    1.000
    C28      C        0.26880    0.73250    0.45970    1.000
    Cd9      Cd       0.84157    0.55470    0.11675    1.000
    Cd10     Cd       0.66443    0.59391    0.90497    1.000
    O57      O        0.82340    0.44080    0.18620    1.000
    O58      O        0.75540    0.58030    0.23130    1.000
    O59      O        0.97580    0.50830    0.88940    1.000
    O60      O        0.52950    0.83870    0.85210    1.000
    O61      O        0.86640    0.55610    0.97830    1.000
    O62      O        0.65760    0.51190    0.02480    1.000
    O63      O        0.77630    0.83100    0.90920    1.000
    O64      O        0.67560    0.52610    0.33220    1.000
    O65      O        0.77250    0.71450    0.90970    1.000
    O66      O        0.53320    0.70020    0.87990    1.000
    O67      O        0.72660    0.38640    0.27690    1.000
    O68      O        0.53440    0.45390    0.09700    1.000
    C29      C        0.76180    0.44390    0.24160    1.000
    C30      C        0.95580    0.51790    0.96120    1.000
    C31      C        0.55400    0.49040    0.03570    1.000
    C32      C        0.72850    0.52350    0.27230    1.000
    C33      C        0.72580    0.76390    0.90530    1.000
    C34      C        0.58420    0.76490    0.88210    1.000
    O69      O        0.80460    0.83710    0.96520    1.000
    O70      O        0.51140    0.67910    0.81030    1.000
    C35      C        0.76880    0.76750    0.95970    1.000
    Cd11     Cd       0.34157    0.05470    0.11675    1.000
    Cd12     Cd       0.16443    0.09391    0.90497    1.000
    O71      O        0.32340    0.94080    0.18620    1.000
    O72      O        0.25540    0.08030    0.23130    1.000
    O73      O        0.47580    0.00830    0.88940    1.000
    O74      O        0.02950    0.33870    0.85210    1.000
    O75      O        0.36640    0.05610    0.97830    1.000
    O76      O        0.15760    0.01190    0.02480    1.000
    O77      O        0.27630    0.33100    0.90920    1.000
    O78      O        0.17560    0.02610    0.33220    1.000
    O79      O        0.27250    0.21450    0.90970    1.000
    O80      O        0.03320    0.20020    0.87990    1.000
    O81      O        0.22660    0.88640    0.27690    1.000
    O82      O        0.03440    0.95390    0.09700    1.000
    C36      C        0.26180    0.94390    0.24160    1.000
    C37      C        0.45580    0.01790    0.96120    1.000
    C38      C        0.05400    0.99040    0.03570    1.000
    C39      C        0.22850    0.02350    0.27230    1.000
    C40      C        0.22580    0.26390    0.90530    1.000
    C41      C        0.08420    0.26490    0.88210    1.000
    O83      O        0.30460    0.33710    0.96520    1.000
    O84      O        0.01140    0.17910    0.81030    1.000
    C42      C        0.26880    0.26750    0.95970    1.000
    Cd13     Cd       0.15843    0.55470    0.38325    1.000
    Cd14     Cd       0.33557    0.59391    0.59503    1.000
    O85      O        0.17660    0.44080    0.31380    1.000
    O86      O        0.24460    0.58030    0.26870    1.000
    O87      O        0.02420    0.50830    0.61060    1.000
    O88      O        0.47050    0.83870    0.64790    1.000
    O89      O        0.13360    0.55610    0.52170    1.000
    O90      O        0.34240    0.51190    0.47520    1.000
    O91      O        0.22370    0.83100    0.59080    1.000
    O92      O        0.32440    0.52610    0.16780    1.000
    O93      O        0.22750    0.71450    0.59030    1.000
    O94      O        0.46680    0.70020    0.62010    1.000
    O95      O        0.27340    0.38640    0.22310    1.000
    O96      O        0.46560    0.45390    0.40300    1.000
    C43      C        0.23820    0.44390    0.25840    1.000
    C44      C        0.04420    0.51790    0.53880    1.000
    C45      C        0.44600    0.49040    0.46430    1.000
    C46      C        0.27150    0.52350    0.22770    1.000
    C47      C        0.27420    0.76390    0.59470    1.000
    C48      C        0.41580    0.76490    0.61790    1.000
    O97      O        0.19540    0.83710    0.53480    1.000
    O98      O        0.48860    0.67910    0.68970    1.000
    C49      C        0.23120    0.76750    0.54030    1.000
    Cd15     Cd       0.65843    0.05470    0.38325    1.000
    Cd16     Cd       0.83557    0.09391    0.59503    1.000
    O99      O        0.67660    0.94080    0.31380    1.000
    O100     O        0.74460    0.08030    0.26870    1.000
    O101     O        0.52420    0.00830    0.61060    1.000
    O102     O        0.97050    0.33870    0.64790    1.000
    O103     O        0.63360    0.05610    0.52170    1.000
    O104     O        0.84240    0.01190    0.47520    1.000
    O105     O        0.72370    0.33100    0.59080    1.000
    O106     O        0.82440    0.02610    0.16780    1.000
    O107     O        0.72750    0.21450    0.59030    1.000
    O108     O        0.96680    0.20020    0.62010    1.000
    O109     O        0.77340    0.88640    0.22310    1.000
    O110     O        0.96560    0.95390    0.40300    1.000
    C50      C        0.73820    0.94390    0.25840    1.000
    C51      C        0.54420    0.01790    0.53880    1.000
    C52      C        0.94600    0.99040    0.46430    1.000
    C53      C        0.77150    0.02350    0.22770    1.000
    C54      C        0.77420    0.26390    0.59470    1.000
    C55      C        0.91580    0.26490    0.61790    1.000
    O111     O        0.69540    0.33710    0.53480    1.000
    O112     O        0.98860    0.17910    0.68970    1.000
    C56      C        0.73120    0.26750    0.54030    1.000
