# CIF file generated by openbabel 3.1.0, see https://openbabel.org
data_I
_chemical_name_common 'image0'
_cell_length_a 22.2003
_cell_length_b 22.2003
_cell_length_c 7.7298
_cell_angle_alpha 90
_cell_angle_beta 90
_cell_angle_gamma 120
_space_group_name_H-M_alt 'P 1'
_space_group_name_Hall 'P 1'
loop_
    _symmetry_equiv_pos_as_xyz
    x,y,z
loop_
    _atom_site_label
    _atom_site_type_symbol
    _atom_site_fract_x
    _atom_site_fract_y
    _atom_site_fract_z
    _atom_site_occupancy
    C1       C        0.48180    0.81250    0.85450    1.000
    H1       H        0.45660    0.83520    0.86860    1.000
    O1       O        0.50480    0.91910    0.63640    1.000
    O2       O        0.57750    0.00090    0.33260    1.000
    N1       N        0.50180    0.58060    0.32140    1.000
    C2       C        0.52810    0.83050    0.71250    1.000
    C3       C        0.53540    0.88590    0.59200    1.000
    C4       C        0.51040    0.62000    0.03150    1.000
    H2       H        0.51500    0.61230    0.91530    1.000
    F1       F        0.59970    0.95630    0.01980    1.000
    C5       C        0.50590    0.57330    0.15380    1.000
    H3       H        0.50580    0.53350    0.11550    1.000
    C6       C        0.63350    0.95640    0.16730    1.000
    C7       C        0.59270    0.95380    0.32380    1.000
    C8       C        0.51400    0.73030    0.95390    1.000
    C9       C        0.57460    0.89840    0.43580    1.000
    H4       H        0.58900    0.86690    0.40710    1.000
    F2       F        0.64860    0.90620    0.15110    1.000
    C10      C        0.47320    0.76250    0.97120    1.000
    H5       H        0.44100    0.74990    0.06040    1.000
    C11      C        0.56310    0.79680    0.69530    1.000
    H6       H        0.59460    0.80850    0.60470    1.000
    C12      C        0.55390    0.74410    0.80950    1.000
    H7       H        0.57520    0.71800    0.78650    1.000
    F3       F        0.69250    0.01500    0.16250    1.000
    C13      C        0.49550    0.68170    0.25640    1.000
    H8       H        0.48820    0.71700    0.29650    1.000
    C14      C        0.49440    0.63420    0.36560    1.000
    H9       H        0.48780    0.63930    0.48240    1.000
    C15      C        0.50790    0.67690    0.07970    1.000
    C16      C        0.18750    0.66930    0.85450    1.000
    H10      H        0.16480    0.62140    0.86860    1.000
    O3       O        0.08090    0.58570    0.63640    1.000
    O4       O        0.99910    0.57660    0.33260    1.000
    N2       N        0.41940    0.92120    0.32140    1.000
    C17      C        0.16950    0.69760    0.71250    1.000
    C18      C        0.11410    0.64950    0.59200    1.000
    C19      C        0.38000    0.89040    0.03150    1.000
    H11      H        0.38770    0.90270    0.91530    1.000
    F4       F        0.04370    0.64340    0.01980    1.000
    C20      C        0.42670    0.93260    0.15380    1.000
    H12      H        0.46650    0.97230    0.11550    1.000
    C21      C        0.04360    0.67710    0.16730    1.000
    C22      C        0.04620    0.63890    0.32380    1.000
    C23      C        0.26970    0.78370    0.95390    1.000
    C24      C        0.10160    0.67620    0.43580    1.000
    H13      H        0.13310    0.72210    0.40710    1.000
    F5       F        0.09380    0.74240    0.15110    1.000
    C25      C        0.23750    0.71070    0.97120    1.000
    H14      H        0.25010    0.69110    0.06040    1.000
    C26      C        0.20320    0.76630    0.69530    1.000
    H15      H        0.19150    0.78610    0.60470    1.000
    C27      C        0.25590    0.80980    0.80950    1.000
    H16      H        0.28200    0.85720    0.78650    1.000
    F6       F        0.98500    0.67750    0.16250    1.000
    C28      C        0.31830    0.81380    0.25640    1.000
    H17      H        0.28300    0.77120    0.29650    1.000
    C29      C        0.36580    0.86020    0.36560    1.000
    H18      H        0.36070    0.84850    0.48240    1.000
    C30      C        0.32310    0.83100    0.07970    1.000
    C31      C        0.33070    0.51820    0.85450    1.000
    H19      H        0.37860    0.54340    0.86860    1.000
    O5       O        0.41430    0.49520    0.63640    1.000
    O6       O        0.42340    0.42250    0.33260    1.000
    N3       N        0.07880    0.49820    0.32140    1.000
    C32      C        0.30240    0.47190    0.71250    1.000
    C33      C        0.35050    0.46460    0.59200    1.000
    C34      C        0.10960    0.48960    0.03150    1.000
    H20      H        0.09730    0.48500    0.91530    1.000
    F7       F        0.35660    0.40030    0.01980    1.000
    C35      C        0.06740    0.49410    0.15380    1.000
    H21      H        0.02770    0.49420    0.11550    1.000
    C36      C        0.32290    0.36650    0.16730    1.000
    C37      C        0.36110    0.40730    0.32380    1.000
    C38      C        0.21630    0.48600    0.95390    1.000
    C39      C        0.32380    0.42540    0.43580    1.000
    H22      H        0.27790    0.41100    0.40710    1.000
    F8       F        0.25760    0.35140    0.15110    1.000
    C40      C        0.28930    0.52680    0.97120    1.000
    H23      H        0.30890    0.55900    0.06040    1.000
    C41      C        0.23370    0.43690    0.69530    1.000
    H24      H        0.21390    0.40540    0.60470    1.000
    C42      C        0.19020    0.44610    0.80950    1.000
    H25      H        0.14280    0.42480    0.78650    1.000
    F9       F        0.32250    0.30750    0.16250    1.000
    C43      C        0.18620    0.50450    0.25640    1.000
    H26      H        0.22880    0.51180    0.29650    1.000
    C44      C        0.13980    0.50560    0.36560    1.000
    H27      H        0.15150    0.51220    0.48240    1.000
    C45      C        0.16900    0.49210    0.07970    1.000
    C46      C        0.51820    0.18750    0.14550    1.000
    H28      H        0.54340    0.16480    0.13140    1.000
    O7       O        0.49520    0.08090    0.36360    1.000
    O8       O        0.42250    0.99910    0.66740    1.000
    N4       N        0.49820    0.41940    0.67860    1.000
    C47      C        0.47190    0.16950    0.28750    1.000
    C48      C        0.46460    0.11410    0.40800    1.000
    C49      C        0.48960    0.38000    0.96850    1.000
    H29      H        0.48500    0.38770    0.08470    1.000
    F10      F        0.40030    0.04370    0.98020    1.000
    C50      C        0.49410    0.42670    0.84620    1.000
    H30      H        0.49420    0.46650    0.88450    1.000
    C51      C        0.36650    0.04360    0.83270    1.000
    C52      C        0.40730    0.04620    0.67620    1.000
    C53      C        0.48600    0.26970    0.04610    1.000
    C54      C        0.42540    0.10160    0.56420    1.000
    H31      H        0.41100    0.13310    0.59290    1.000
    F11      F        0.35140    0.09380    0.84890    1.000
    C55      C        0.52680    0.23750    0.02880    1.000
    H32      H        0.55900    0.25010    0.93960    1.000
    C56      C        0.43690    0.20320    0.30470    1.000
    H33      H        0.40540    0.19150    0.39530    1.000
    C57      C        0.44610    0.25590    0.19050    1.000
    H34      H        0.42480    0.28200    0.21350    1.000
    F12      F        0.30750    0.98500    0.83750    1.000
    C58      C        0.50450    0.31830    0.74360    1.000
    H35      H        0.51180    0.28300    0.70350    1.000
    C59      C        0.50560    0.36580    0.63440    1.000
    H36      H        0.51220    0.36070    0.51760    1.000
    C60      C        0.49210    0.32310    0.92030    1.000
    C61      C        0.81250    0.33070    0.14550    1.000
    H37      H        0.83520    0.37860    0.13140    1.000
    O9       O        0.91910    0.41430    0.36360    1.000
    O10      O        0.00090    0.42340    0.66740    1.000
    N5       N        0.58060    0.07880    0.67860    1.000
    C62      C        0.83050    0.30240    0.28750    1.000
    C63      C        0.88590    0.35050    0.40800    1.000
    C64      C        0.62000    0.10960    0.96850    1.000
    H38      H        0.61230    0.09730    0.08470    1.000
    F13      F        0.95630    0.35660    0.98020    1.000
    C65      C        0.57330    0.06740    0.84620    1.000
    H39      H        0.53350    0.02770    0.88450    1.000
    C66      C        0.95640    0.32290    0.83270    1.000
    C67      C        0.95380    0.36110    0.67620    1.000
    C68      C        0.73030    0.21630    0.04610    1.000
    C69      C        0.89840    0.32380    0.56420    1.000
    H40      H        0.86690    0.27790    0.59290    1.000
    F14      F        0.90620    0.25760    0.84890    1.000
    C70      C        0.76250    0.28930    0.02880    1.000
    H41      H        0.74990    0.30890    0.93960    1.000
    C71      C        0.79680    0.23370    0.30470    1.000
    H42      H        0.80850    0.21390    0.39530    1.000
    C72      C        0.74410    0.19020    0.19050    1.000
    H43      H        0.71800    0.14280    0.21350    1.000
    F15      F        0.01500    0.32250    0.83750    1.000
    C73      C        0.68170    0.18620    0.74360    1.000
    H44      H        0.71700    0.22880    0.70350    1.000
    C74      C        0.63420    0.13980    0.63440    1.000
    H45      H        0.63930    0.15150    0.51760    1.000
    C75      C        0.67690    0.16900    0.92030    1.000
    C76      C        0.66930    0.48180    0.14550    1.000
    H46      H        0.62140    0.45660    0.13140    1.000
    O11      O        0.58570    0.50480    0.36360    1.000
    O12      O        0.57660    0.57750    0.66740    1.000
    N6       N        0.92120    0.50180    0.67860    1.000
    C77      C        0.69760    0.52810    0.28750    1.000
    C78      C        0.64950    0.53540    0.40800    1.000
    C79      C        0.89040    0.51040    0.96850    1.000
    H47      H        0.90270    0.51500    0.08470    1.000
    F16      F        0.64340    0.59970    0.98020    1.000
    C80      C        0.93260    0.50590    0.84620    1.000
    H48      H        0.97230    0.50580    0.88450    1.000
    C81      C        0.67710    0.63350    0.83270    1.000
    C82      C        0.63890    0.59270    0.67620    1.000
    C83      C        0.78370    0.51400    0.04610    1.000
    C84      C        0.67620    0.57460    0.56420    1.000
    H49      H        0.72210    0.58900    0.59290    1.000
    F17      F        0.74240    0.64860    0.84890    1.000
    C85      C        0.71070    0.47320    0.02880    1.000
    H50      H        0.69110    0.44100    0.93960    1.000
    C86      C        0.76630    0.56310    0.30470    1.000
    H51      H        0.78610    0.59460    0.39530    1.000
    C87      C        0.80980    0.55390    0.19050    1.000
    H52      H        0.85720    0.57520    0.21350    1.000
    F18      F        0.67750    0.69250    0.83750    1.000
    C88      C        0.81380    0.49550    0.74360    1.000
    H53      H        0.77120    0.48820    0.70350    1.000
    C89      C        0.86020    0.49440    0.63440    1.000
    H54      H        0.84850    0.48780    0.51760    1.000
    C90      C        0.83100    0.50790    0.92030    1.000
    Mn1      Mn       0.50000    0.00000    0.50000    1.000
    Mn2      Mn       0.00000    0.50000    0.50000    1.000
    Mn3      Mn       0.50000    0.50000    0.50000    1.000
