# CIF file generated by openbabel 3.1.0, see https://openbabel.org
data_I
_chemical_name_common 'image0'
_cell_length_a 34.8807
_cell_length_b 34.8807
_cell_length_c 34.8807
_cell_angle_alpha 90
_cell_angle_beta 90
_cell_angle_gamma 90
_space_group_name_H-M_alt 'P 1'
_space_group_name_Hall 'P 1'
loop_
    _symmetry_equiv_pos_as_xyz
    x,y,z
loop_
    _atom_site_label
    _atom_site_type_symbol
    _atom_site_fract_x
    _atom_site_fract_y
    _atom_site_fract_z
    _atom_site_occupancy
    C1       C        0.01910    0.71770    0.07510    1.000
    C2       C        0.05040    0.77910    0.10610    1.000
    C3       C        0.10640    0.90300    0.04680    1.000
    H1       H        0.12260    0.89670    0.02660    1.000
    C4       C        0.09140    0.94050    0.04830    1.000
    C5       C        0.06730    0.94890    0.07740    1.000
    H2       H        0.05680    0.97330    0.07940    1.000
    C6       C        0.05830    0.92120    0.10410    1.000
    H3       H        0.04110    0.92640    0.12370    1.000
    C7       C        0.07540    0.88530    0.10120    1.000
    H4       H        0.07030    0.86710    0.12000    1.000
    C8       C        0.12930    0.72940    0.05180    1.000
    H5       H        0.10280    0.73130    0.05430    1.000
    C9       C        0.14550    0.69560    0.04050    1.000
    C10      C        0.18420    0.69230    0.03850    1.000
    H6       H        0.19520    0.66910    0.03120    1.000
    C11      C        0.20600    0.72120    0.04670    1.000
    H7       H        0.23250    0.71900    0.04500    1.000
    C12      C        0.18910    0.75570    0.05800    1.000
    H8       H        0.20490    0.77610    0.06460    1.000
    C13      C        0.10330    0.97020    0.01790    1.000
    H9       H        0.13060    0.97490    0.02010    1.000
    H10      H        0.09840    0.96010    0.99250    1.000
    C14      C        0.13080    0.65880    0.02110    1.000
    H11      H        0.14760    0.65080    0.00040    1.000
    H12      H        0.12820    0.63800    0.03930    1.000
    N1       N        0.02970    0.70060    0.04910    1.000
    N2       N        0.07660    0.79419    0.09382    1.000
    N3       N        0.09859    0.87620    0.07240    1.000
    N4       N        0.15170    0.76040    0.05950    1.000
    O1       O        0.09430    0.67130    0.00690    1.000
    H13      H        0.07630    0.67900    0.99400    1.000
    O2       O        0.08110    0.00140    0.02070    1.000
    H14      H        0.06200    0.01400    0.02900    1.000
    H15      H        0.11280    0.95670    0.99550    1.000
    H16      H        0.08070    0.98450    0.01010    1.000
    C15      C        0.11840    0.66230    0.04060    1.000
    H17      H        0.13190    0.63820    0.03730    1.000
    H18      H        0.10340    0.66140    0.06390    1.000
    O3       O        0.13200    0.99660    0.03060    1.000
    H19      H        0.15380    0.99640    0.01940    1.000
    C16      C        0.51910    0.21770    0.57510    1.000
    C17      C        0.55040    0.27910    0.60610    1.000
    C18      C        0.60640    0.40300    0.54680    1.000
    H20      H        0.62260    0.39670    0.52660    1.000
    C19      C        0.59140    0.44050    0.54830    1.000
    C20      C        0.56730    0.44890    0.57740    1.000
    H21      H        0.55680    0.47330    0.57940    1.000
    C21      C        0.55830    0.42120    0.60410    1.000
    H22      H        0.54110    0.42640    0.62370    1.000
    C22      C        0.57540    0.38530    0.60120    1.000
    H23      H        0.57030    0.36710    0.62000    1.000
    C23      C        0.62930    0.22940    0.55180    1.000
    H24      H        0.60280    0.23130    0.55430    1.000
    C24      C        0.64550    0.19560    0.54050    1.000
    C25      C        0.68420    0.19230    0.53850    1.000
    H25      H        0.69520    0.16910    0.53120    1.000
    C26      C        0.70600    0.22120    0.54670    1.000
    H26      H        0.73250    0.21900    0.54500    1.000
    C27      C        0.68910    0.25570    0.55800    1.000
    H27      H        0.70490    0.27610    0.56460    1.000
    C28      C        0.60330    0.47020    0.51790    1.000
    H28      H        0.63060    0.47490    0.52010    1.000
    H29      H        0.59840    0.46010    0.49250    1.000
    C29      C        0.63080    0.15880    0.52110    1.000
    H30      H        0.64760    0.15080    0.50040    1.000
    H31      H        0.62820    0.13800    0.53930    1.000
    N5       N        0.52970    0.20060    0.54910    1.000
    N6       N        0.57660    0.29419    0.59382    1.000
    N7       N        0.59859    0.37620    0.57240    1.000
    N8       N        0.65170    0.26040    0.55950    1.000
    O4       O        0.59430    0.17130    0.50690    1.000
    H32      H        0.57630    0.17900    0.49400    1.000
    O5       O        0.58110    0.50140    0.52070    1.000
    H33      H        0.56200    0.51400    0.52900    1.000
    H34      H        0.61280    0.45670    0.49550    1.000
    H35      H        0.58070    0.48450    0.51010    1.000
    C30      C        0.61840    0.16230    0.54060    1.000
    H36      H        0.63190    0.13820    0.53730    1.000
    H37      H        0.60340    0.16140    0.56390    1.000
    O6       O        0.63200    0.49660    0.53060    1.000
    H38      H        0.65380    0.49640    0.51940    1.000
    C31      C        0.48090    0.28230    0.57510    1.000
    C32      C        0.44960    0.22090    0.60610    1.000
    C33      C        0.39360    0.09700    0.54680    1.000
    H39      H        0.37740    0.10330    0.52660    1.000
    C34      C        0.40860    0.05950    0.54830    1.000
    C35      C        0.43270    0.05110    0.57740    1.000
    H40      H        0.44320    0.02670    0.57940    1.000
    C36      C        0.44170    0.07880    0.60410    1.000
    H41      H        0.45890    0.07360    0.62370    1.000
    C37      C        0.42460    0.11470    0.60120    1.000
    H42      H        0.42970    0.13290    0.62000    1.000
    C38      C        0.37070    0.27060    0.55180    1.000
    H43      H        0.39720    0.26870    0.55430    1.000
    C39      C        0.35450    0.30440    0.54050    1.000
    C40      C        0.31580    0.30770    0.53850    1.000
    H44      H        0.30480    0.33090    0.53120    1.000
    C41      C        0.29400    0.27880    0.54670    1.000
    H45      H        0.26750    0.28100    0.54500    1.000
    C42      C        0.31090    0.24430    0.55800    1.000
    H46      H        0.29510    0.22390    0.56460    1.000
    C43      C        0.39670    0.02980    0.51790    1.000
    H47      H        0.36940    0.02510    0.52010    1.000
    H48      H        0.40160    0.03990    0.49250    1.000
    C44      C        0.36920    0.34120    0.52110    1.000
    H49      H        0.35240    0.34920    0.50040    1.000
    H50      H        0.37180    0.36200    0.53930    1.000
    N9       N        0.47030    0.29940    0.54910    1.000
    N10      N        0.42340    0.20581    0.59382    1.000
    N11      N        0.40141    0.12380    0.57240    1.000
    N12      N        0.34830    0.23960    0.55950    1.000
    O7       O        0.40570    0.32870    0.50690    1.000
    H51      H        0.42370    0.32100    0.49400    1.000
    O8       O        0.41890    0.99860    0.52070    1.000
    H52      H        0.43800    0.98600    0.52900    1.000
    H53      H        0.38720    0.04330    0.49550    1.000
    H54      H        0.41930    0.01550    0.51010    1.000
    C45      C        0.38160    0.33770    0.54060    1.000
    H55      H        0.36810    0.36180    0.53730    1.000
    H56      H        0.39660    0.33860    0.56390    1.000
    O9       O        0.36800    0.00340    0.53060    1.000
    H57      H        0.34620    0.00360    0.51940    1.000
    C46      C        0.98090    0.78230    0.07510    1.000
    C47      C        0.94960    0.72090    0.10610    1.000
    C48      C        0.89360    0.59700    0.04680    1.000
    H58      H        0.87740    0.60330    0.02660    1.000
    C49      C        0.90860    0.55950    0.04830    1.000
    C50      C        0.93270    0.55110    0.07740    1.000
    H59      H        0.94320    0.52670    0.07940    1.000
    C51      C        0.94170    0.57880    0.10410    1.000
    H60      H        0.95890    0.57360    0.12370    1.000
    C52      C        0.92460    0.61470    0.10120    1.000
    H61      H        0.92970    0.63290    0.12000    1.000
    C53      C        0.87070    0.77060    0.05180    1.000
    H62      H        0.89720    0.76870    0.05430    1.000
    C54      C        0.85450    0.80440    0.04050    1.000
    C55      C        0.81580    0.80770    0.03850    1.000
    H63      H        0.80480    0.83090    0.03120    1.000
    C56      C        0.79400    0.77880    0.04670    1.000
    H64      H        0.76750    0.78100    0.04500    1.000
    C57      C        0.81090    0.74430    0.05800    1.000
    H65      H        0.79510    0.72390    0.06460    1.000
    C58      C        0.89670    0.52980    0.01790    1.000
    H66      H        0.86940    0.52510    0.02010    1.000
    H67      H        0.90160    0.53990    0.99250    1.000
    C59      C        0.86920    0.84120    0.02110    1.000
    H68      H        0.85240    0.84920    0.00040    1.000
    H69      H        0.87180    0.86200    0.03930    1.000
    N13      N        0.97030    0.79940    0.04910    1.000
    N14      N        0.92340    0.70581    0.09382    1.000
    N15      N        0.90141    0.62380    0.07240    1.000
    N16      N        0.84830    0.73960    0.05950    1.000
    O10      O        0.90570    0.82870    0.00690    1.000
    H70      H        0.92370    0.82100    0.99400    1.000
    O11      O        0.91890    0.49860    0.02070    1.000
    H71      H        0.93800    0.48600    0.02900    1.000
    H72      H        0.88720    0.54330    0.99550    1.000
    H73      H        0.91930    0.51550    0.01010    1.000
    C60      C        0.88160    0.83770    0.04060    1.000
    H74      H        0.86810    0.86180    0.03730    1.000
    H75      H        0.89660    0.83860    0.06390    1.000
    O12      O        0.86800    0.50340    0.03060    1.000
    H76      H        0.84620    0.50360    0.01940    1.000
    C61      C        0.98090    0.21770    0.42490    1.000
    C62      C        0.94960    0.27910    0.39390    1.000
    C63      C        0.89360    0.40300    0.45320    1.000
    H77      H        0.87740    0.39670    0.47340    1.000
    C64      C        0.90860    0.44050    0.45170    1.000
    C65      C        0.93270    0.44890    0.42260    1.000
    H78      H        0.94320    0.47330    0.42060    1.000
    C66      C        0.94170    0.42120    0.39590    1.000
    H79      H        0.95890    0.42640    0.37630    1.000
    C67      C        0.92460    0.38530    0.39880    1.000
    H80      H        0.92970    0.36710    0.38000    1.000
    C68      C        0.87070    0.22940    0.44820    1.000
    H81      H        0.89720    0.23130    0.44570    1.000
    C69      C        0.85450    0.19560    0.45950    1.000
    C70      C        0.81580    0.19230    0.46150    1.000
    H82      H        0.80480    0.16910    0.46880    1.000
    C71      C        0.79400    0.22120    0.45330    1.000
    H83      H        0.76750    0.21900    0.45500    1.000
    C72      C        0.81090    0.25570    0.44200    1.000
    H84      H        0.79510    0.27610    0.43540    1.000
    C73      C        0.89670    0.47020    0.48210    1.000
    H85      H        0.86940    0.47490    0.47990    1.000
    H86      H        0.90160    0.46010    0.50750    1.000
    C74      C        0.86920    0.15880    0.47890    1.000
    H87      H        0.85240    0.15080    0.49960    1.000
    H88      H        0.87180    0.13800    0.46070    1.000
    N17      N        0.97030    0.20060    0.45090    1.000
    N18      N        0.92340    0.29419    0.40618    1.000
    N19      N        0.90141    0.37620    0.42760    1.000
    N20      N        0.84830    0.26040    0.44050    1.000
    O13      O        0.90570    0.17130    0.49310    1.000
    H89      H        0.92370    0.17900    0.50600    1.000
    O14      O        0.91890    0.50140    0.47930    1.000
    H90      H        0.93800    0.51400    0.47100    1.000
    H91      H        0.88720    0.45670    0.50450    1.000
    H92      H        0.91930    0.48450    0.48990    1.000
    C75      C        0.88160    0.16230    0.45940    1.000
    H93      H        0.86810    0.13820    0.46270    1.000
    H94      H        0.89660    0.16140    0.43610    1.000
    O15      O        0.86800    0.49660    0.46940    1.000
    H95      H        0.84620    0.49640    0.48060    1.000
    C76      C        0.48090    0.71770    0.92490    1.000
    C77      C        0.44960    0.77910    0.89390    1.000
    C78      C        0.39360    0.90300    0.95320    1.000
    H96      H        0.37740    0.89670    0.97340    1.000
    C79      C        0.40860    0.94050    0.95170    1.000
    C80      C        0.43270    0.94890    0.92260    1.000
    H97      H        0.44320    0.97330    0.92060    1.000
    C81      C        0.44170    0.92120    0.89590    1.000
    H98      H        0.45890    0.92640    0.87630    1.000
    C82      C        0.42460    0.88530    0.89880    1.000
    H99      H        0.42970    0.86710    0.88000    1.000
    C83      C        0.37070    0.72940    0.94820    1.000
    H100     H        0.39720    0.73130    0.94570    1.000
    C84      C        0.35450    0.69560    0.95950    1.000
    C85      C        0.31580    0.69230    0.96150    1.000
    H101     H        0.30480    0.66910    0.96880    1.000
    C86      C        0.29400    0.72120    0.95330    1.000
    H102     H        0.26750    0.71900    0.95500    1.000
    C87      C        0.31090    0.75570    0.94200    1.000
    H103     H        0.29510    0.77610    0.93540    1.000
    C88      C        0.39670    0.97020    0.98210    1.000
    H104     H        0.36940    0.97490    0.97990    1.000
    H105     H        0.40160    0.96010    0.00750    1.000
    C89      C        0.36920    0.65880    0.97890    1.000
    H106     H        0.35240    0.65080    0.99960    1.000
    H107     H        0.37180    0.63800    0.96070    1.000
    N21      N        0.47030    0.70060    0.95090    1.000
    N22      N        0.42340    0.79419    0.90618    1.000
    N23      N        0.40141    0.87620    0.92760    1.000
    N24      N        0.34830    0.76040    0.94050    1.000
    O16      O        0.40570    0.67130    0.99310    1.000
    H108     H        0.42370    0.67900    0.00600    1.000
    O17      O        0.41890    0.00140    0.97930    1.000
    H109     H        0.43800    0.01400    0.97100    1.000
    H110     H        0.38720    0.95670    0.00450    1.000
    H111     H        0.41930    0.98450    0.98990    1.000
    C90      C        0.38160    0.66230    0.95940    1.000
    H112     H        0.36810    0.63820    0.96270    1.000
    H113     H        0.39660    0.66140    0.93610    1.000
    O18      O        0.36800    0.99660    0.96940    1.000
    H114     H        0.34620    0.99640    0.98060    1.000
    C91      C        0.51910    0.78230    0.92490    1.000
    C92      C        0.55040    0.72090    0.89390    1.000
    C93      C        0.60640    0.59700    0.95320    1.000
    H115     H        0.62260    0.60330    0.97340    1.000
    C94      C        0.59140    0.55950    0.95170    1.000
    C95      C        0.56730    0.55110    0.92260    1.000
    H116     H        0.55680    0.52670    0.92060    1.000
    C96      C        0.55830    0.57880    0.89590    1.000
    H117     H        0.54110    0.57360    0.87630    1.000
    C97      C        0.57540    0.61470    0.89880    1.000
    H118     H        0.57030    0.63290    0.88000    1.000
    C98      C        0.62930    0.77060    0.94820    1.000
    H119     H        0.60280    0.76870    0.94570    1.000
    C99      C        0.64550    0.80440    0.95950    1.000
    C100     C        0.68420    0.80770    0.96150    1.000
    H120     H        0.69520    0.83090    0.96880    1.000
    C101     C        0.70600    0.77880    0.95330    1.000
    H121     H        0.73250    0.78100    0.95500    1.000
    C102     C        0.68910    0.74430    0.94200    1.000
    H122     H        0.70490    0.72390    0.93540    1.000
    C103     C        0.60330    0.52980    0.98210    1.000
    H123     H        0.63060    0.52510    0.97990    1.000
    H124     H        0.59840    0.53990    0.00750    1.000
    C104     C        0.63080    0.84120    0.97890    1.000
    H125     H        0.64760    0.84920    0.99960    1.000
    H126     H        0.62820    0.86200    0.96070    1.000
    N25      N        0.52970    0.79940    0.95090    1.000
    N26      N        0.57660    0.70581    0.90618    1.000
    N27      N        0.59859    0.62380    0.92760    1.000
    N28      N        0.65170    0.73960    0.94050    1.000
    O19      O        0.59430    0.82870    0.99310    1.000
    H127     H        0.57630    0.82100    0.00600    1.000
    O20      O        0.58110    0.49860    0.97930    1.000
    H128     H        0.56200    0.48600    0.97100    1.000
    H129     H        0.61280    0.54330    0.00450    1.000
    H130     H        0.58070    0.51550    0.98990    1.000
    C105     C        0.61840    0.83770    0.95940    1.000
    H131     H        0.63190    0.86180    0.96270    1.000
    H132     H        0.60340    0.83860    0.93610    1.000
    O21      O        0.63200    0.50340    0.96940    1.000
    H133     H        0.65380    0.50360    0.98060    1.000
    C106     C        0.01910    0.28230    0.42490    1.000
    C107     C        0.05040    0.22090    0.39390    1.000
    C108     C        0.10640    0.09700    0.45320    1.000
    H134     H        0.12260    0.10330    0.47340    1.000
    C109     C        0.09140    0.05950    0.45170    1.000
    C110     C        0.06730    0.05110    0.42260    1.000
    H135     H        0.05680    0.02670    0.42060    1.000
    C111     C        0.05830    0.07880    0.39590    1.000
    H136     H        0.04110    0.07360    0.37630    1.000
    C112     C        0.07540    0.11470    0.39880    1.000
    H137     H        0.07030    0.13290    0.38000    1.000
    C113     C        0.12930    0.27060    0.44820    1.000
    H138     H        0.10280    0.26870    0.44570    1.000
    C114     C        0.14550    0.30440    0.45950    1.000
    C115     C        0.18420    0.30770    0.46150    1.000
    H139     H        0.19520    0.33090    0.46880    1.000
    C116     C        0.20600    0.27880    0.45330    1.000
    H140     H        0.23250    0.28100    0.45500    1.000
    C117     C        0.18910    0.24430    0.44200    1.000
    H141     H        0.20490    0.22390    0.43540    1.000
    C118     C        0.10330    0.02980    0.48210    1.000
    H142     H        0.13060    0.02510    0.47990    1.000
    H143     H        0.09840    0.03990    0.50750    1.000
    C119     C        0.13080    0.34120    0.47890    1.000
    H144     H        0.14760    0.34920    0.49960    1.000
    H145     H        0.12820    0.36200    0.46070    1.000
    N29      N        0.02970    0.29940    0.45090    1.000
    N30      N        0.07660    0.20581    0.40618    1.000
    N31      N        0.09859    0.12380    0.42760    1.000
    N32      N        0.15170    0.23960    0.44050    1.000
    O22      O        0.09430    0.32870    0.49310    1.000
    H146     H        0.07630    0.32100    0.50600    1.000
    O23      O        0.08110    0.99860    0.47930    1.000
    H147     H        0.06200    0.98600    0.47100    1.000
    H148     H        0.11280    0.04330    0.50450    1.000
    H149     H        0.08070    0.01550    0.48990    1.000
    C120     C        0.11840    0.33770    0.45940    1.000
    H150     H        0.13190    0.36180    0.46270    1.000
    H151     H        0.10340    0.33860    0.43610    1.000
    O24      O        0.13200    0.00340    0.46940    1.000
    H152     H        0.15380    0.00360    0.48060    1.000
    C121     C        0.07510    0.01910    0.71770    1.000
    C122     C        0.10610    0.05040    0.77910    1.000
    C123     C        0.04680    0.10640    0.90300    1.000
    H153     H        0.02660    0.12260    0.89670    1.000
    C124     C        0.04830    0.09140    0.94050    1.000
    C125     C        0.07740    0.06730    0.94890    1.000
    H154     H        0.07940    0.05680    0.97330    1.000
    C126     C        0.10410    0.05830    0.92120    1.000
    H155     H        0.12370    0.04110    0.92640    1.000
    C127     C        0.10120    0.07540    0.88530    1.000
    H156     H        0.12000    0.07030    0.86710    1.000
    C128     C        0.05180    0.12930    0.72940    1.000
    H157     H        0.05430    0.10280    0.73130    1.000
    C129     C        0.04050    0.14550    0.69560    1.000
    C130     C        0.03850    0.18420    0.69230    1.000
    H158     H        0.03120    0.19520    0.66910    1.000
    C131     C        0.04670    0.20600    0.72120    1.000
    H159     H        0.04500    0.23250    0.71900    1.000
    C132     C        0.05800    0.18910    0.75570    1.000
    H160     H        0.06460    0.20490    0.77610    1.000
    C133     C        0.01790    0.10330    0.97020    1.000
    H161     H        0.02010    0.13060    0.97490    1.000
    H162     H        0.99250    0.09840    0.96010    1.000
    C134     C        0.02110    0.13080    0.65880    1.000
    H163     H        0.00040    0.14760    0.65080    1.000
    H164     H        0.03930    0.12820    0.63800    1.000
    N33      N        0.04910    0.02970    0.70060    1.000
    N34      N        0.09382    0.07660    0.79419    1.000
    N35      N        0.07240    0.09859    0.87620    1.000
    N36      N        0.05950    0.15170    0.76040    1.000
    O25      O        0.00690    0.09430    0.67130    1.000
    H165     H        0.99400    0.07630    0.67900    1.000
    O26      O        0.02070    0.08110    0.00140    1.000
    H166     H        0.02900    0.06200    0.01400    1.000
    H167     H        0.99550    0.11280    0.95670    1.000
    H168     H        0.01010    0.08070    0.98450    1.000
    C135     C        0.04060    0.11840    0.66230    1.000
    H169     H        0.03730    0.13190    0.63820    1.000
    H170     H        0.06390    0.10340    0.66140    1.000
    O27      O        0.03060    0.13200    0.99660    1.000
    H171     H        0.01940    0.15380    0.99640    1.000
    C136     C        0.57510    0.51910    0.21770    1.000
    C137     C        0.60610    0.55040    0.27910    1.000
    C138     C        0.54680    0.60640    0.40300    1.000
    H172     H        0.52660    0.62260    0.39670    1.000
    C139     C        0.54830    0.59140    0.44050    1.000
    C140     C        0.57740    0.56730    0.44890    1.000
    H173     H        0.57940    0.55680    0.47330    1.000
    C141     C        0.60410    0.55830    0.42120    1.000
    H174     H        0.62370    0.54110    0.42640    1.000
    C142     C        0.60120    0.57540    0.38530    1.000
    H175     H        0.62000    0.57030    0.36710    1.000
    C143     C        0.55180    0.62930    0.22940    1.000
    H176     H        0.55430    0.60280    0.23130    1.000
    C144     C        0.54050    0.64550    0.19560    1.000
    C145     C        0.53850    0.68420    0.19230    1.000
    H177     H        0.53120    0.69520    0.16910    1.000
    C146     C        0.54670    0.70600    0.22120    1.000
    H178     H        0.54500    0.73250    0.21900    1.000
    C147     C        0.55800    0.68910    0.25570    1.000
    H179     H        0.56460    0.70490    0.27610    1.000
    C148     C        0.51790    0.60330    0.47020    1.000
    H180     H        0.52010    0.63060    0.47490    1.000
    H181     H        0.49250    0.59840    0.46010    1.000
    C149     C        0.52110    0.63080    0.15880    1.000
    H182     H        0.50040    0.64760    0.15080    1.000
    H183     H        0.53930    0.62820    0.13800    1.000
    N37      N        0.54910    0.52970    0.20060    1.000
    N38      N        0.59382    0.57660    0.29419    1.000
    N39      N        0.57240    0.59859    0.37620    1.000
    N40      N        0.55950    0.65170    0.26040    1.000
    O28      O        0.50690    0.59430    0.17130    1.000
    H184     H        0.49400    0.57630    0.17900    1.000
    O29      O        0.52070    0.58110    0.50140    1.000
    H185     H        0.52900    0.56200    0.51400    1.000
    H186     H        0.49550    0.61280    0.45670    1.000
    H187     H        0.51010    0.58070    0.48450    1.000
    C150     C        0.54060    0.61840    0.16230    1.000
    H188     H        0.53730    0.63190    0.13820    1.000
    H189     H        0.56390    0.60340    0.16140    1.000
    O30      O        0.53060    0.63200    0.49660    1.000
    H190     H        0.51940    0.65380    0.49640    1.000
    C151     C        0.57510    0.48090    0.28230    1.000
    C152     C        0.60610    0.44960    0.22090    1.000
    C153     C        0.54680    0.39360    0.09700    1.000
    H191     H        0.52660    0.37740    0.10330    1.000
    C154     C        0.54830    0.40860    0.05950    1.000
    C155     C        0.57740    0.43270    0.05110    1.000
    H192     H        0.57940    0.44320    0.02670    1.000
    C156     C        0.60410    0.44170    0.07880    1.000
    H193     H        0.62370    0.45890    0.07360    1.000
    C157     C        0.60120    0.42460    0.11470    1.000
    H194     H        0.62000    0.42970    0.13290    1.000
    C158     C        0.55180    0.37070    0.27060    1.000
    H195     H        0.55430    0.39720    0.26870    1.000
    C159     C        0.54050    0.35450    0.30440    1.000
    C160     C        0.53850    0.31580    0.30770    1.000
    H196     H        0.53120    0.30480    0.33090    1.000
    C161     C        0.54670    0.29400    0.27880    1.000
    H197     H        0.54500    0.26750    0.28100    1.000
    C162     C        0.55800    0.31090    0.24430    1.000
    H198     H        0.56460    0.29510    0.22390    1.000
    C163     C        0.51790    0.39670    0.02980    1.000
    H199     H        0.52010    0.36940    0.02510    1.000
    H200     H        0.49250    0.40160    0.03990    1.000
    C164     C        0.52110    0.36920    0.34120    1.000
    H201     H        0.50040    0.35240    0.34920    1.000
    H202     H        0.53930    0.37180    0.36200    1.000
    N41      N        0.54910    0.47030    0.29940    1.000
    N42      N        0.59382    0.42340    0.20581    1.000
    N43      N        0.57240    0.40141    0.12380    1.000
    N44      N        0.55950    0.34830    0.23960    1.000
    O31      O        0.50690    0.40570    0.32870    1.000
    H203     H        0.49400    0.42370    0.32100    1.000
    O32      O        0.52070    0.41890    0.99860    1.000
    H204     H        0.52900    0.43800    0.98600    1.000
    H205     H        0.49550    0.38720    0.04330    1.000
    H206     H        0.51010    0.41930    0.01550    1.000
    C165     C        0.54060    0.38160    0.33770    1.000
    H207     H        0.53730    0.36810    0.36180    1.000
    H208     H        0.56390    0.39660    0.33860    1.000
    O33      O        0.53060    0.36800    0.00340    1.000
    H209     H        0.51940    0.34620    0.00360    1.000
    C166     C        0.07510    0.98090    0.78230    1.000
    C167     C        0.10610    0.94960    0.72090    1.000
    C168     C        0.04680    0.89360    0.59700    1.000
    H210     H        0.02660    0.87740    0.60330    1.000
    C169     C        0.04830    0.90860    0.55950    1.000
    C170     C        0.07740    0.93270    0.55110    1.000
    H211     H        0.07940    0.94320    0.52670    1.000
    C171     C        0.10410    0.94170    0.57880    1.000
    H212     H        0.12370    0.95890    0.57360    1.000
    C172     C        0.10120    0.92460    0.61470    1.000
    H213     H        0.12000    0.92970    0.63290    1.000
    C173     C        0.05180    0.87070    0.77060    1.000
    H214     H        0.05430    0.89720    0.76870    1.000
    C174     C        0.04050    0.85450    0.80440    1.000
    C175     C        0.03850    0.81580    0.80770    1.000
    H215     H        0.03120    0.80480    0.83090    1.000
    C176     C        0.04670    0.79400    0.77880    1.000
    H216     H        0.04500    0.76750    0.78100    1.000
    C177     C        0.05800    0.81090    0.74430    1.000
    H217     H        0.06460    0.79510    0.72390    1.000
    C178     C        0.01790    0.89670    0.52980    1.000
    H218     H        0.02010    0.86940    0.52510    1.000
    H219     H        0.99250    0.90160    0.53990    1.000
    C179     C        0.02110    0.86920    0.84120    1.000
    H220     H        0.00040    0.85240    0.84920    1.000
    H221     H        0.03930    0.87180    0.86200    1.000
    N45      N        0.04910    0.97030    0.79940    1.000
    N46      N        0.09382    0.92340    0.70581    1.000
    N47      N        0.07240    0.90141    0.62380    1.000
    N48      N        0.05950    0.84830    0.73960    1.000
    O34      O        0.00690    0.90570    0.82870    1.000
    H222     H        0.99400    0.92370    0.82100    1.000
    O35      O        0.02070    0.91890    0.49860    1.000
    H223     H        0.02900    0.93800    0.48600    1.000
    H224     H        0.99550    0.88720    0.54330    1.000
    H225     H        0.01010    0.91930    0.51550    1.000
    C180     C        0.04060    0.88160    0.83770    1.000
    H226     H        0.03730    0.86810    0.86180    1.000
    H227     H        0.06390    0.89660    0.83860    1.000
    O36      O        0.03060    0.86800    0.50340    1.000
    H228     H        0.01940    0.84620    0.50360    1.000
    C181     C        0.42490    0.98090    0.21770    1.000
    C182     C        0.39390    0.94960    0.27910    1.000
    C183     C        0.45320    0.89360    0.40300    1.000
    H229     H        0.47340    0.87740    0.39670    1.000
    C184     C        0.45170    0.90860    0.44050    1.000
    C185     C        0.42260    0.93270    0.44890    1.000
    H230     H        0.42060    0.94320    0.47330    1.000
    C186     C        0.39590    0.94170    0.42120    1.000
    H231     H        0.37630    0.95890    0.42640    1.000
    C187     C        0.39880    0.92460    0.38530    1.000
    H232     H        0.38000    0.92970    0.36710    1.000
    C188     C        0.44820    0.87070    0.22940    1.000
    H233     H        0.44570    0.89720    0.23130    1.000
    C189     C        0.45950    0.85450    0.19560    1.000
    C190     C        0.46150    0.81580    0.19230    1.000
    H234     H        0.46880    0.80480    0.16910    1.000
    C191     C        0.45330    0.79400    0.22120    1.000
    H235     H        0.45500    0.76750    0.21900    1.000
    C192     C        0.44200    0.81090    0.25570    1.000
    H236     H        0.43540    0.79510    0.27610    1.000
    C193     C        0.48210    0.89670    0.47020    1.000
    H237     H        0.47990    0.86940    0.47490    1.000
    H238     H        0.50750    0.90160    0.46010    1.000
    C194     C        0.47890    0.86920    0.15880    1.000
    H239     H        0.49960    0.85240    0.15080    1.000
    H240     H        0.46070    0.87180    0.13800    1.000
    N49      N        0.45090    0.97030    0.20060    1.000
    N50      N        0.40618    0.92340    0.29419    1.000
    N51      N        0.42760    0.90141    0.37620    1.000
    N52      N        0.44050    0.84830    0.26040    1.000
    O37      O        0.49310    0.90570    0.17130    1.000
    H241     H        0.50600    0.92370    0.17900    1.000
    O38      O        0.47930    0.91890    0.50140    1.000
    H242     H        0.47100    0.93800    0.51400    1.000
    H243     H        0.50450    0.88720    0.45670    1.000
    H244     H        0.48990    0.91930    0.48450    1.000
    C195     C        0.45940    0.88160    0.16230    1.000
    H245     H        0.46270    0.86810    0.13820    1.000
    H246     H        0.43610    0.89660    0.16140    1.000
    O39      O        0.46940    0.86800    0.49660    1.000
    H247     H        0.48060    0.84620    0.49640    1.000
    C196     C        0.92490    0.48090    0.71770    1.000
    C197     C        0.89390    0.44960    0.77910    1.000
    C198     C        0.95320    0.39360    0.90300    1.000
    H248     H        0.97340    0.37740    0.89670    1.000
    C199     C        0.95170    0.40860    0.94050    1.000
    C200     C        0.92260    0.43270    0.94890    1.000
    H249     H        0.92060    0.44320    0.97330    1.000
    C201     C        0.89590    0.44170    0.92120    1.000
    H250     H        0.87630    0.45890    0.92640    1.000
    C202     C        0.89880    0.42460    0.88530    1.000
    H251     H        0.88000    0.42970    0.86710    1.000
    C203     C        0.94820    0.37070    0.72940    1.000
    H252     H        0.94570    0.39720    0.73130    1.000
    C204     C        0.95950    0.35450    0.69560    1.000
    C205     C        0.96150    0.31580    0.69230    1.000
    H253     H        0.96880    0.30480    0.66910    1.000
    C206     C        0.95330    0.29400    0.72120    1.000
    H254     H        0.95500    0.26750    0.71900    1.000
    C207     C        0.94200    0.31090    0.75570    1.000
    H255     H        0.93540    0.29510    0.77610    1.000
    C208     C        0.98210    0.39670    0.97020    1.000
    H256     H        0.97990    0.36940    0.97490    1.000
    H257     H        0.00750    0.40160    0.96010    1.000
    C209     C        0.97890    0.36920    0.65880    1.000
    H258     H        0.99960    0.35240    0.65080    1.000
    H259     H        0.96070    0.37180    0.63800    1.000
    N53      N        0.95090    0.47030    0.70060    1.000
    N54      N        0.90618    0.42340    0.79419    1.000
    N55      N        0.92760    0.40141    0.87620    1.000
    N56      N        0.94050    0.34830    0.76040    1.000
    O40      O        0.99310    0.40570    0.67130    1.000
    H260     H        0.00600    0.42370    0.67900    1.000
    O41      O        0.97930    0.41890    0.00140    1.000
    H261     H        0.97100    0.43800    0.01400    1.000
    H262     H        0.00450    0.38720    0.95670    1.000
    H263     H        0.98990    0.41930    0.98450    1.000
    C210     C        0.95940    0.38160    0.66230    1.000
    H264     H        0.96270    0.36810    0.63820    1.000
    H265     H        0.93610    0.39660    0.66140    1.000
    O42      O        0.96940    0.36800    0.99660    1.000
    H266     H        0.98060    0.34620    0.99640    1.000
    C211     C        0.92490    0.51910    0.78230    1.000
    C212     C        0.89390    0.55040    0.72090    1.000
    C213     C        0.95320    0.60640    0.59700    1.000
    H267     H        0.97340    0.62260    0.60330    1.000
    C214     C        0.95170    0.59140    0.55950    1.000
    C215     C        0.92260    0.56730    0.55110    1.000
    H268     H        0.92060    0.55680    0.52670    1.000
    C216     C        0.89590    0.55830    0.57880    1.000
    H269     H        0.87630    0.54110    0.57360    1.000
    C217     C        0.89880    0.57540    0.61470    1.000
    H270     H        0.88000    0.57030    0.63290    1.000
    C218     C        0.94820    0.62930    0.77060    1.000
    H271     H        0.94570    0.60280    0.76870    1.000
    C219     C        0.95950    0.64550    0.80440    1.000
    C220     C        0.96150    0.68420    0.80770    1.000
    H272     H        0.96880    0.69520    0.83090    1.000
    C221     C        0.95330    0.70600    0.77880    1.000
    H273     H        0.95500    0.73250    0.78100    1.000
    C222     C        0.94200    0.68910    0.74430    1.000
    H274     H        0.93540    0.70490    0.72390    1.000
    C223     C        0.98210    0.60330    0.52980    1.000
    H275     H        0.97990    0.63060    0.52510    1.000
    H276     H        0.00750    0.59840    0.53990    1.000
    C224     C        0.97890    0.63080    0.84120    1.000
    H277     H        0.99960    0.64760    0.84920    1.000
    H278     H        0.96070    0.62820    0.86200    1.000
    N57      N        0.95090    0.52970    0.79940    1.000
    N58      N        0.90618    0.57660    0.70581    1.000
    N59      N        0.92760    0.59859    0.62380    1.000
    N60      N        0.94050    0.65170    0.73960    1.000
    O43      O        0.99310    0.59430    0.82870    1.000
    H279     H        0.00600    0.57630    0.82100    1.000
    O44      O        0.97930    0.58110    0.49860    1.000
    H280     H        0.97100    0.56200    0.48600    1.000
    H281     H        0.00450    0.61280    0.54330    1.000
    H282     H        0.98990    0.58070    0.51550    1.000
    C225     C        0.95940    0.61840    0.83770    1.000
    H283     H        0.96270    0.63190    0.86180    1.000
    H284     H        0.93610    0.60340    0.83860    1.000
    O45      O        0.96940    0.63200    0.50340    1.000
    H285     H        0.98060    0.65380    0.50360    1.000
    C226     C        0.42490    0.01910    0.28230    1.000
    C227     C        0.39390    0.05040    0.22090    1.000
    C228     C        0.45320    0.10640    0.09700    1.000
    H286     H        0.47340    0.12260    0.10330    1.000
    C229     C        0.45170    0.09140    0.05950    1.000
    C230     C        0.42260    0.06730    0.05110    1.000
    H287     H        0.42060    0.05680    0.02670    1.000
    C231     C        0.39590    0.05830    0.07880    1.000
    H288     H        0.37630    0.04110    0.07360    1.000
    C232     C        0.39880    0.07540    0.11470    1.000
    H289     H        0.38000    0.07030    0.13290    1.000
    C233     C        0.44820    0.12930    0.27060    1.000
    H290     H        0.44570    0.10280    0.26870    1.000
    C234     C        0.45950    0.14550    0.30440    1.000
    C235     C        0.46150    0.18420    0.30770    1.000
    H291     H        0.46880    0.19520    0.33090    1.000
    C236     C        0.45330    0.20600    0.27880    1.000
    H292     H        0.45500    0.23250    0.28100    1.000
    C237     C        0.44200    0.18910    0.24430    1.000
    H293     H        0.43540    0.20490    0.22390    1.000
    C238     C        0.48210    0.10330    0.02980    1.000
    H294     H        0.47990    0.13060    0.02510    1.000
    H295     H        0.50750    0.09840    0.03990    1.000
    C239     C        0.47890    0.13080    0.34120    1.000
    H296     H        0.49960    0.14760    0.34920    1.000
    H297     H        0.46070    0.12820    0.36200    1.000
    N61      N        0.45090    0.02970    0.29940    1.000
    N62      N        0.40618    0.07660    0.20581    1.000
    N63      N        0.42760    0.09859    0.12380    1.000
    N64      N        0.44050    0.15170    0.23960    1.000
    O46      O        0.49310    0.09430    0.32870    1.000
    H298     H        0.50600    0.07630    0.32100    1.000
    O47      O        0.47930    0.08110    0.99860    1.000
    H299     H        0.47100    0.06200    0.98600    1.000
    H300     H        0.50450    0.11280    0.04330    1.000
    H301     H        0.48990    0.08070    0.01550    1.000
    C240     C        0.45940    0.11840    0.33770    1.000
    H302     H        0.46270    0.13190    0.36180    1.000
    H303     H        0.43610    0.10340    0.33860    1.000
    O48      O        0.46940    0.13200    0.00340    1.000
    H304     H        0.48060    0.15380    0.00360    1.000
    C241     C        0.71770    0.07510    0.01910    1.000
    C242     C        0.77910    0.10610    0.05040    1.000
    C243     C        0.90300    0.04680    0.10640    1.000
    H305     H        0.89670    0.02660    0.12260    1.000
    C244     C        0.94050    0.04830    0.09140    1.000
    C245     C        0.94890    0.07740    0.06730    1.000
    H306     H        0.97330    0.07940    0.05680    1.000
    C246     C        0.92120    0.10410    0.05830    1.000
    H307     H        0.92640    0.12370    0.04110    1.000
    C247     C        0.88530    0.10120    0.07540    1.000
    H308     H        0.86710    0.12000    0.07030    1.000
    C248     C        0.72940    0.05180    0.12930    1.000
    H309     H        0.73130    0.05430    0.10280    1.000
    C249     C        0.69560    0.04050    0.14550    1.000
    C250     C        0.69230    0.03850    0.18420    1.000
    H310     H        0.66910    0.03120    0.19520    1.000
    C251     C        0.72120    0.04670    0.20600    1.000
    H311     H        0.71900    0.04500    0.23250    1.000
    C252     C        0.75570    0.05800    0.18910    1.000
    H312     H        0.77610    0.06460    0.20490    1.000
    C253     C        0.97020    0.01790    0.10330    1.000
    H313     H        0.97490    0.02010    0.13060    1.000
    H314     H        0.96010    0.99250    0.09840    1.000
    C254     C        0.65880    0.02110    0.13080    1.000
    H315     H        0.65080    0.00040    0.14760    1.000
    H316     H        0.63800    0.03930    0.12820    1.000
    N65      N        0.70060    0.04910    0.02970    1.000
    N66      N        0.79419    0.09382    0.07660    1.000
    N67      N        0.87620    0.07240    0.09859    1.000
    N68      N        0.76040    0.05950    0.15170    1.000
    O49      O        0.67130    0.00690    0.09430    1.000
    H317     H        0.67900    0.99400    0.07630    1.000
    O50      O        0.00140    0.02070    0.08110    1.000
    H318     H        0.01400    0.02900    0.06200    1.000
    H319     H        0.95670    0.99550    0.11280    1.000
    H320     H        0.98450    0.01010    0.08070    1.000
    C255     C        0.66230    0.04060    0.11840    1.000
    H321     H        0.63820    0.03730    0.13190    1.000
    H322     H        0.66140    0.06390    0.10340    1.000
    O51      O        0.99660    0.03060    0.13200    1.000
    H323     H        0.99640    0.01940    0.15380    1.000
    C256     C        0.21770    0.57510    0.51910    1.000
    C257     C        0.27910    0.60610    0.55040    1.000
    C258     C        0.40300    0.54680    0.60640    1.000
    H324     H        0.39670    0.52660    0.62260    1.000
    C259     C        0.44050    0.54830    0.59140    1.000
    C260     C        0.44890    0.57740    0.56730    1.000
    H325     H        0.47330    0.57940    0.55680    1.000
    C261     C        0.42120    0.60410    0.55830    1.000
    H326     H        0.42640    0.62370    0.54110    1.000
    C262     C        0.38530    0.60120    0.57540    1.000
    H327     H        0.36710    0.62000    0.57030    1.000
    C263     C        0.22940    0.55180    0.62930    1.000
    H328     H        0.23130    0.55430    0.60280    1.000
    C264     C        0.19560    0.54050    0.64550    1.000
    C265     C        0.19230    0.53850    0.68420    1.000
    H329     H        0.16910    0.53120    0.69520    1.000
    C266     C        0.22120    0.54670    0.70600    1.000
    H330     H        0.21900    0.54500    0.73250    1.000
    C267     C        0.25570    0.55800    0.68910    1.000
    H331     H        0.27610    0.56460    0.70490    1.000
    C268     C        0.47020    0.51790    0.60330    1.000
    H332     H        0.47490    0.52010    0.63060    1.000
    H333     H        0.46010    0.49250    0.59840    1.000
    C269     C        0.15880    0.52110    0.63080    1.000
    H334     H        0.15080    0.50040    0.64760    1.000
    H335     H        0.13800    0.53930    0.62820    1.000
    N69      N        0.20060    0.54910    0.52970    1.000
    N70      N        0.29419    0.59382    0.57660    1.000
    N71      N        0.37620    0.57240    0.59859    1.000
    N72      N        0.26040    0.55950    0.65170    1.000
    O52      O        0.17130    0.50690    0.59430    1.000
    H336     H        0.17900    0.49400    0.57630    1.000
    O53      O        0.50140    0.52070    0.58110    1.000
    H337     H        0.51400    0.52900    0.56200    1.000
    H338     H        0.45670    0.49550    0.61280    1.000
    H339     H        0.48450    0.51010    0.58070    1.000
    C270     C        0.16230    0.54060    0.61840    1.000
    H340     H        0.13820    0.53730    0.63190    1.000
    H341     H        0.16140    0.56390    0.60340    1.000
    O54      O        0.49660    0.53060    0.63200    1.000
    H342     H        0.49640    0.51940    0.65380    1.000
    C271     C        0.28230    0.57510    0.48090    1.000
    C272     C        0.22090    0.60610    0.44960    1.000
    C273     C        0.09700    0.54680    0.39360    1.000
    H343     H        0.10330    0.52660    0.37740    1.000
    C274     C        0.05950    0.54830    0.40860    1.000
    C275     C        0.05110    0.57740    0.43270    1.000
    H344     H        0.02670    0.57940    0.44320    1.000
    C276     C        0.07880    0.60410    0.44170    1.000
    H345     H        0.07360    0.62370    0.45890    1.000
    C277     C        0.11470    0.60120    0.42460    1.000
    H346     H        0.13290    0.62000    0.42970    1.000
    C278     C        0.27060    0.55180    0.37070    1.000
    H347     H        0.26870    0.55430    0.39720    1.000
    C279     C        0.30440    0.54050    0.35450    1.000
    C280     C        0.30770    0.53850    0.31580    1.000
    H348     H        0.33090    0.53120    0.30480    1.000
    C281     C        0.27880    0.54670    0.29400    1.000
    H349     H        0.28100    0.54500    0.26750    1.000
    C282     C        0.24430    0.55800    0.31090    1.000
    H350     H        0.22390    0.56460    0.29510    1.000
    C283     C        0.02980    0.51790    0.39670    1.000
    H351     H        0.02510    0.52010    0.36940    1.000
    H352     H        0.03990    0.49250    0.40160    1.000
    C284     C        0.34120    0.52110    0.36920    1.000
    H353     H        0.34920    0.50040    0.35240    1.000
    H354     H        0.36200    0.53930    0.37180    1.000
    N73      N        0.29940    0.54910    0.47030    1.000
    N74      N        0.20581    0.59382    0.42340    1.000
    N75      N        0.12380    0.57240    0.40141    1.000
    N76      N        0.23960    0.55950    0.34830    1.000
    O55      O        0.32870    0.50690    0.40570    1.000
    H355     H        0.32100    0.49400    0.42370    1.000
    O56      O        0.99860    0.52070    0.41890    1.000
    H356     H        0.98600    0.52900    0.43800    1.000
    H357     H        0.04330    0.49550    0.38720    1.000
    H358     H        0.01550    0.51010    0.41930    1.000
    C285     C        0.33770    0.54060    0.38160    1.000
    H359     H        0.36180    0.53730    0.36810    1.000
    H360     H        0.33860    0.56390    0.39660    1.000
    O57      O        0.00340    0.53060    0.36800    1.000
    H361     H        0.00360    0.51940    0.34620    1.000
    C286     C        0.78230    0.07510    0.98090    1.000
    C287     C        0.72090    0.10610    0.94960    1.000
    C288     C        0.59700    0.04680    0.89360    1.000
    H362     H        0.60330    0.02660    0.87740    1.000
    C289     C        0.55950    0.04830    0.90860    1.000
    C290     C        0.55110    0.07740    0.93270    1.000
    H363     H        0.52670    0.07940    0.94320    1.000
    C291     C        0.57880    0.10410    0.94170    1.000
    H364     H        0.57360    0.12370    0.95890    1.000
    C292     C        0.61470    0.10120    0.92460    1.000
    H365     H        0.63290    0.12000    0.92970    1.000
    C293     C        0.77060    0.05180    0.87070    1.000
    H366     H        0.76870    0.05430    0.89720    1.000
    C294     C        0.80440    0.04050    0.85450    1.000
    C295     C        0.80770    0.03850    0.81580    1.000
    H367     H        0.83090    0.03120    0.80480    1.000
    C296     C        0.77880    0.04670    0.79400    1.000
    H368     H        0.78100    0.04500    0.76750    1.000
    C297     C        0.74430    0.05800    0.81090    1.000
    H369     H        0.72390    0.06460    0.79510    1.000
    C298     C        0.52980    0.01790    0.89670    1.000
    H370     H        0.52510    0.02010    0.86940    1.000
    H371     H        0.53990    0.99250    0.90160    1.000
    C299     C        0.84120    0.02110    0.86920    1.000
    H372     H        0.84920    0.00040    0.85240    1.000
    H373     H        0.86200    0.03930    0.87180    1.000
    N77      N        0.79940    0.04910    0.97030    1.000
    N78      N        0.70581    0.09382    0.92340    1.000
    N79      N        0.62380    0.07240    0.90141    1.000
    N80      N        0.73960    0.05950    0.84830    1.000
    O58      O        0.82870    0.00690    0.90570    1.000
    H374     H        0.82100    0.99400    0.92370    1.000
    O59      O        0.49860    0.02070    0.91890    1.000
    H375     H        0.48600    0.02900    0.93800    1.000
    H376     H        0.54330    0.99550    0.88720    1.000
    H377     H        0.51550    0.01010    0.91930    1.000
    C300     C        0.83770    0.04060    0.88160    1.000
    H378     H        0.86180    0.03730    0.86810    1.000
    H379     H        0.83860    0.06390    0.89660    1.000
    O60      O        0.50340    0.03060    0.86800    1.000
    H380     H        0.50360    0.01940    0.84620    1.000
    C301     C        0.21770    0.42490    0.98090    1.000
    C302     C        0.27910    0.39390    0.94960    1.000
    C303     C        0.40300    0.45320    0.89360    1.000
    H381     H        0.39670    0.47340    0.87740    1.000
    C304     C        0.44050    0.45170    0.90860    1.000
    C305     C        0.44890    0.42260    0.93270    1.000
    H382     H        0.47330    0.42060    0.94320    1.000
    C306     C        0.42120    0.39590    0.94170    1.000
    H383     H        0.42640    0.37630    0.95890    1.000
    C307     C        0.38530    0.39880    0.92460    1.000
    H384     H        0.36710    0.38000    0.92970    1.000
    C308     C        0.22940    0.44820    0.87070    1.000
    H385     H        0.23130    0.44570    0.89720    1.000
    C309     C        0.19560    0.45950    0.85450    1.000
    C310     C        0.19230    0.46150    0.81580    1.000
    H386     H        0.16910    0.46880    0.80480    1.000
    C311     C        0.22120    0.45330    0.79400    1.000
    H387     H        0.21900    0.45500    0.76750    1.000
    C312     C        0.25570    0.44200    0.81090    1.000
    H388     H        0.27610    0.43540    0.79510    1.000
    C313     C        0.47020    0.48210    0.89670    1.000
    H389     H        0.47490    0.47990    0.86940    1.000
    H390     H        0.46010    0.50750    0.90160    1.000
    C314     C        0.15880    0.47890    0.86920    1.000
    H391     H        0.15080    0.49960    0.85240    1.000
    H392     H        0.13800    0.46070    0.87180    1.000
    N81      N        0.20060    0.45090    0.97030    1.000
    N82      N        0.29419    0.40618    0.92340    1.000
    N83      N        0.37620    0.42760    0.90141    1.000
    N84      N        0.26040    0.44050    0.84830    1.000
    O61      O        0.17130    0.49310    0.90570    1.000
    H393     H        0.17900    0.50600    0.92370    1.000
    O62      O        0.50140    0.47930    0.91890    1.000
    H394     H        0.51400    0.47100    0.93800    1.000
    H395     H        0.45670    0.50450    0.88720    1.000
    H396     H        0.48450    0.48990    0.91930    1.000
    C315     C        0.16230    0.45940    0.88160    1.000
    H397     H        0.13820    0.46270    0.86810    1.000
    H398     H        0.16140    0.43610    0.89660    1.000
    O63      O        0.49660    0.46940    0.86800    1.000
    H399     H        0.49640    0.48060    0.84620    1.000
    C316     C        0.71770    0.92490    0.48090    1.000
    C317     C        0.77910    0.89390    0.44960    1.000
    C318     C        0.90300    0.95320    0.39360    1.000
    H400     H        0.89670    0.97340    0.37740    1.000
    C319     C        0.94050    0.95170    0.40860    1.000
    C320     C        0.94890    0.92260    0.43270    1.000
    H401     H        0.97330    0.92060    0.44320    1.000
    C321     C        0.92120    0.89590    0.44170    1.000
    H402     H        0.92640    0.87630    0.45890    1.000
    C322     C        0.88530    0.89880    0.42460    1.000
    H403     H        0.86710    0.88000    0.42970    1.000
    C323     C        0.72940    0.94820    0.37070    1.000
    H404     H        0.73130    0.94570    0.39720    1.000
    C324     C        0.69560    0.95950    0.35450    1.000
    C325     C        0.69230    0.96150    0.31580    1.000
    H405     H        0.66910    0.96880    0.30480    1.000
    C326     C        0.72120    0.95330    0.29400    1.000
    H406     H        0.71900    0.95500    0.26750    1.000
    C327     C        0.75570    0.94200    0.31090    1.000
    H407     H        0.77610    0.93540    0.29510    1.000
    C328     C        0.97020    0.98210    0.39670    1.000
    H408     H        0.97490    0.97990    0.36940    1.000
    H409     H        0.96010    0.00750    0.40160    1.000
    C329     C        0.65880    0.97890    0.36920    1.000
    H410     H        0.65080    0.99960    0.35240    1.000
    H411     H        0.63800    0.96070    0.37180    1.000
    N85      N        0.70060    0.95090    0.47030    1.000
    N86      N        0.79419    0.90618    0.42340    1.000
    N87      N        0.87620    0.92760    0.40141    1.000
    N88      N        0.76040    0.94050    0.34830    1.000
    O64      O        0.67130    0.99310    0.40570    1.000
    H412     H        0.67900    0.00600    0.42370    1.000
    O65      O        0.00140    0.97930    0.41890    1.000
    H413     H        0.01400    0.97100    0.43800    1.000
    H414     H        0.95670    0.00450    0.38720    1.000
    H415     H        0.98450    0.98990    0.41930    1.000
    C330     C        0.66230    0.95940    0.38160    1.000
    H416     H        0.63820    0.96270    0.36810    1.000
    H417     H        0.66140    0.93610    0.39660    1.000
    O66      O        0.99660    0.96940    0.36800    1.000
    H418     H        0.99640    0.98060    0.34620    1.000
    C331     C        0.78230    0.92490    0.51910    1.000
    C332     C        0.72090    0.89390    0.55040    1.000
    C333     C        0.59700    0.95320    0.60640    1.000
    H419     H        0.60330    0.97340    0.62260    1.000
    C334     C        0.55950    0.95170    0.59140    1.000
    C335     C        0.55110    0.92260    0.56730    1.000
    H420     H        0.52670    0.92060    0.55680    1.000
    C336     C        0.57880    0.89590    0.55830    1.000
    H421     H        0.57360    0.87630    0.54110    1.000
    C337     C        0.61470    0.89880    0.57540    1.000
    H422     H        0.63290    0.88000    0.57030    1.000
    C338     C        0.77060    0.94820    0.62930    1.000
    H423     H        0.76870    0.94570    0.60280    1.000
    C339     C        0.80440    0.95950    0.64550    1.000
    C340     C        0.80770    0.96150    0.68420    1.000
    H424     H        0.83090    0.96880    0.69520    1.000
    C341     C        0.77880    0.95330    0.70600    1.000
    H425     H        0.78100    0.95500    0.73250    1.000
    C342     C        0.74430    0.94200    0.68910    1.000
    H426     H        0.72390    0.93540    0.70490    1.000
    C343     C        0.52980    0.98210    0.60330    1.000
    H427     H        0.52510    0.97990    0.63060    1.000
    H428     H        0.53990    0.00750    0.59840    1.000
    C344     C        0.84120    0.97890    0.63080    1.000
    H429     H        0.84920    0.99960    0.64760    1.000
    H430     H        0.86200    0.96070    0.62820    1.000
    N89      N        0.79940    0.95090    0.52970    1.000
    N90      N        0.70581    0.90618    0.57660    1.000
    N91      N        0.62380    0.92760    0.59859    1.000
    N92      N        0.73960    0.94050    0.65170    1.000
    O67      O        0.82870    0.99310    0.59430    1.000
    H431     H        0.82100    0.00600    0.57630    1.000
    O68      O        0.49860    0.97930    0.58110    1.000
    H432     H        0.48600    0.97100    0.56200    1.000
    H433     H        0.54330    0.00450    0.61280    1.000
    H434     H        0.51550    0.98990    0.58070    1.000
    C345     C        0.83770    0.95940    0.61840    1.000
    H435     H        0.86180    0.96270    0.63190    1.000
    H436     H        0.83860    0.93610    0.60340    1.000
    O69      O        0.50340    0.96940    0.63200    1.000
    H437     H        0.50360    0.98060    0.65380    1.000
    C346     C        0.28230    0.42490    0.01910    1.000
    C347     C        0.22090    0.39390    0.05040    1.000
    C348     C        0.09700    0.45320    0.10640    1.000
    H438     H        0.10330    0.47340    0.12260    1.000
    C349     C        0.05950    0.45170    0.09140    1.000
    C350     C        0.05110    0.42260    0.06730    1.000
    H439     H        0.02670    0.42060    0.05680    1.000
    C351     C        0.07880    0.39590    0.05830    1.000
    H440     H        0.07360    0.37630    0.04110    1.000
    C352     C        0.11470    0.39880    0.07540    1.000
    H441     H        0.13290    0.38000    0.07030    1.000
    C353     C        0.27060    0.44820    0.12930    1.000
    H442     H        0.26870    0.44570    0.10280    1.000
    C354     C        0.30440    0.45950    0.14550    1.000
    C355     C        0.30770    0.46150    0.18420    1.000
    H443     H        0.33090    0.46880    0.19520    1.000
    C356     C        0.27880    0.45330    0.20600    1.000
    H444     H        0.28100    0.45500    0.23250    1.000
    C357     C        0.24430    0.44200    0.18910    1.000
    H445     H        0.22390    0.43540    0.20490    1.000
    C358     C        0.02980    0.48210    0.10330    1.000
    H446     H        0.02510    0.47990    0.13060    1.000
    H447     H        0.03990    0.50750    0.09840    1.000
    C359     C        0.34120    0.47890    0.13080    1.000
    H448     H        0.34920    0.49960    0.14760    1.000
    H449     H        0.36200    0.46070    0.12820    1.000
    N93      N        0.29940    0.45090    0.02970    1.000
    N94      N        0.20581    0.40618    0.07660    1.000
    N95      N        0.12380    0.42760    0.09859    1.000
    N96      N        0.23960    0.44050    0.15170    1.000
    O70      O        0.32870    0.49310    0.09430    1.000
    H450     H        0.32100    0.50600    0.07630    1.000
    O71      O        0.99860    0.47930    0.08110    1.000
    H451     H        0.98600    0.47100    0.06200    1.000
    H452     H        0.04330    0.50450    0.11280    1.000
    H453     H        0.01550    0.48990    0.08070    1.000
    C360     C        0.33770    0.45940    0.11840    1.000
    H454     H        0.36180    0.46270    0.13190    1.000
    H455     H        0.33860    0.43610    0.10340    1.000
    O72      O        0.00340    0.46940    0.13200    1.000
    H456     H        0.00360    0.48060    0.15380    1.000
    C361     C        0.46770    0.26910    0.17490    1.000
    C362     C        0.52910    0.30040    0.14390    1.000
    C363     C        0.65300    0.35640    0.20320    1.000
    H457     H        0.64670    0.37260    0.22340    1.000
    C364     C        0.69050    0.34140    0.20170    1.000
    C365     C        0.69890    0.31730    0.17260    1.000
    H458     H        0.72330    0.30680    0.17060    1.000
    C366     C        0.67120    0.30830    0.14590    1.000
    H459     H        0.67640    0.29110    0.12630    1.000
    C367     C        0.63530    0.32540    0.14880    1.000
    H460     H        0.61710    0.32030    0.13000    1.000
    C368     C        0.47940    0.37930    0.19820    1.000
    H461     H        0.48130    0.35280    0.19570    1.000
    C369     C        0.44560    0.39550    0.20950    1.000
    C370     C        0.44230    0.43420    0.21150    1.000
    H462     H        0.41910    0.44520    0.21880    1.000
    C371     C        0.47120    0.45600    0.20330    1.000
    H463     H        0.46900    0.48250    0.20500    1.000
    C372     C        0.50570    0.43910    0.19200    1.000
    H464     H        0.52610    0.45490    0.18540    1.000
    C373     C        0.72020    0.35330    0.23210    1.000
    H465     H        0.72490    0.38060    0.22990    1.000
    H466     H        0.71010    0.34840    0.25750    1.000
    C374     C        0.40880    0.38080    0.22890    1.000
    H467     H        0.40080    0.39760    0.24960    1.000
    H468     H        0.38800    0.37820    0.21070    1.000
    N97      N        0.45060    0.27970    0.20090    1.000
    N98      N        0.54419    0.32660    0.15618    1.000
    N99      N        0.62620    0.34859    0.17760    1.000
    N100     N        0.51040    0.40170    0.19050    1.000
    O73      O        0.42130    0.34430    0.24310    1.000
    H469     H        0.42900    0.32630    0.25600    1.000
    O74      O        0.75140    0.33110    0.22930    1.000
    H470     H        0.76400    0.31200    0.22100    1.000
    H471     H        0.70670    0.36280    0.25450    1.000
    H472     H        0.73450    0.33070    0.23990    1.000
    C375     C        0.41230    0.36840    0.20940    1.000
    H473     H        0.38820    0.38190    0.21270    1.000
    H474     H        0.41140    0.35340    0.18610    1.000
    O75      O        0.74660    0.38200    0.21940    1.000
    H475     H        0.74640    0.40380    0.23060    1.000
    C376     C        0.96770    0.76910    0.67490    1.000
    C377     C        0.02910    0.80040    0.64390    1.000
    C378     C        0.15300    0.85640    0.70320    1.000
    H476     H        0.14670    0.87260    0.72340    1.000
    C379     C        0.19050    0.84140    0.70170    1.000
    C380     C        0.19890    0.81730    0.67260    1.000
    H477     H        0.22330    0.80680    0.67060    1.000
    C381     C        0.17120    0.80830    0.64590    1.000
    H478     H        0.17640    0.79110    0.62630    1.000
    C382     C        0.13530    0.82540    0.64880    1.000
    H479     H        0.11710    0.82030    0.63000    1.000
    C383     C        0.97940    0.87930    0.69820    1.000
    H480     H        0.98130    0.85280    0.69570    1.000
    C384     C        0.94560    0.89550    0.70950    1.000
    C385     C        0.94230    0.93420    0.71150    1.000
    H481     H        0.91910    0.94520    0.71880    1.000
    C386     C        0.97120    0.95600    0.70330    1.000
    H482     H        0.96900    0.98250    0.70500    1.000
    C387     C        0.00570    0.93910    0.69200    1.000
    H483     H        0.02610    0.95490    0.68540    1.000
    C388     C        0.22020    0.85330    0.73210    1.000
    H484     H        0.22490    0.88060    0.72990    1.000
    H485     H        0.21010    0.84840    0.75750    1.000
    C389     C        0.90880    0.88080    0.72890    1.000
    H486     H        0.90080    0.89760    0.74960    1.000
    H487     H        0.88800    0.87820    0.71070    1.000
    N101     N        0.95060    0.77970    0.70090    1.000
    N102     N        0.04419    0.82660    0.65618    1.000
    N103     N        0.12620    0.84859    0.67760    1.000
    N104     N        0.01040    0.90170    0.69050    1.000
    O76      O        0.92130    0.84430    0.74310    1.000
    H488     H        0.92900    0.82630    0.75600    1.000
    O77      O        0.25140    0.83110    0.72930    1.000
    H489     H        0.26400    0.81200    0.72100    1.000
    H490     H        0.20670    0.86280    0.75450    1.000
    H491     H        0.23450    0.83070    0.73990    1.000
    C390     C        0.91230    0.86840    0.70940    1.000
    H492     H        0.88820    0.88190    0.71270    1.000
    H493     H        0.91140    0.85340    0.68610    1.000
    O78      O        0.24660    0.88200    0.71940    1.000
    H494     H        0.24640    0.90380    0.73060    1.000
    C391     C        0.03230    0.73090    0.67490    1.000
    C392     C        0.97090    0.69960    0.64390    1.000
    C393     C        0.84700    0.64360    0.70320    1.000
    H495     H        0.85330    0.62740    0.72340    1.000
    C394     C        0.80950    0.65860    0.70170    1.000
    C395     C        0.80110    0.68270    0.67260    1.000
    H496     H        0.77670    0.69320    0.67060    1.000
    C396     C        0.82880    0.69170    0.64590    1.000
    H497     H        0.82360    0.70890    0.62630    1.000
    C397     C        0.86470    0.67460    0.64880    1.000
    H498     H        0.88290    0.67970    0.63000    1.000
    C398     C        0.02060    0.62070    0.69820    1.000
    H499     H        0.01870    0.64720    0.69570    1.000
    C399     C        0.05440    0.60450    0.70950    1.000
    C400     C        0.05770    0.56580    0.71150    1.000
    H500     H        0.08090    0.55480    0.71880    1.000
    C401     C        0.02880    0.54400    0.70330    1.000
    H501     H        0.03100    0.51750    0.70500    1.000
    C402     C        0.99430    0.56090    0.69200    1.000
    H502     H        0.97390    0.54510    0.68540    1.000
    C403     C        0.77980    0.64670    0.73210    1.000
    H503     H        0.77510    0.61940    0.72990    1.000
    H504     H        0.78990    0.65160    0.75750    1.000
    C404     C        0.09120    0.61920    0.72890    1.000
    H505     H        0.09920    0.60240    0.74960    1.000
    H506     H        0.11200    0.62180    0.71070    1.000
    N105     N        0.04940    0.72030    0.70090    1.000
    N106     N        0.95581    0.67340    0.65618    1.000
    N107     N        0.87380    0.65141    0.67760    1.000
    N108     N        0.98960    0.59830    0.69050    1.000
    O79      O        0.07870    0.65570    0.74310    1.000
    H507     H        0.07100    0.67370    0.75600    1.000
    O80      O        0.74860    0.66890    0.72930    1.000
    H508     H        0.73600    0.68800    0.72100    1.000
    H509     H        0.79330    0.63720    0.75450    1.000
    H510     H        0.76550    0.66930    0.73990    1.000
    C405     C        0.08770    0.63160    0.70940    1.000
    H511     H        0.11180    0.61810    0.71270    1.000
    H512     H        0.08860    0.64660    0.68610    1.000
    O81      O        0.75340    0.61800    0.71940    1.000
    H513     H        0.75360    0.59620    0.73060    1.000
    C406     C        0.53230    0.23090    0.17490    1.000
    C407     C        0.47090    0.19960    0.14390    1.000
    C408     C        0.34700    0.14360    0.20320    1.000
    H514     H        0.35330    0.12740    0.22340    1.000
    C409     C        0.30950    0.15860    0.20170    1.000
    C410     C        0.30110    0.18270    0.17260    1.000
    H515     H        0.27670    0.19320    0.17060    1.000
    C411     C        0.32880    0.19170    0.14590    1.000
    H516     H        0.32360    0.20890    0.12630    1.000
    C412     C        0.36470    0.17460    0.14880    1.000
    H517     H        0.38290    0.17970    0.13000    1.000
    C413     C        0.52060    0.12070    0.19820    1.000
    H518     H        0.51870    0.14720    0.19570    1.000
    C414     C        0.55440    0.10450    0.20950    1.000
    C415     C        0.55770    0.06580    0.21150    1.000
    H519     H        0.58090    0.05480    0.21880    1.000
    C416     C        0.52880    0.04400    0.20330    1.000
    H520     H        0.53100    0.01750    0.20500    1.000
    C417     C        0.49430    0.06090    0.19200    1.000
    H521     H        0.47390    0.04510    0.18540    1.000
    C418     C        0.27980    0.14670    0.23210    1.000
    H522     H        0.27510    0.11940    0.22990    1.000
    H523     H        0.28990    0.15160    0.25750    1.000
    C419     C        0.59120    0.11920    0.22890    1.000
    H524     H        0.59920    0.10240    0.24960    1.000
    H525     H        0.61200    0.12180    0.21070    1.000
    N109     N        0.54940    0.22030    0.20090    1.000
    N110     N        0.45581    0.17340    0.15618    1.000
    N111     N        0.37380    0.15141    0.17760    1.000
    N112     N        0.48960    0.09830    0.19050    1.000
    O82      O        0.57870    0.15570    0.24310    1.000
    H526     H        0.57100    0.17370    0.25600    1.000
    O83      O        0.24860    0.16890    0.22930    1.000
    H527     H        0.23600    0.18800    0.22100    1.000
    H528     H        0.29330    0.13720    0.25450    1.000
    H529     H        0.26550    0.16930    0.23990    1.000
    C420     C        0.58770    0.13160    0.20940    1.000
    H530     H        0.61180    0.11810    0.21270    1.000
    H531     H        0.58860    0.14660    0.18610    1.000
    O84      O        0.25340    0.11800    0.21940    1.000
    H532     H        0.25360    0.09620    0.23060    1.000
    C421     C        0.96770    0.23090    0.82510    1.000
    C422     C        0.02910    0.19960    0.85610    1.000
    C423     C        0.15300    0.14360    0.79680    1.000
    H533     H        0.14670    0.12740    0.77660    1.000
    C424     C        0.19050    0.15860    0.79830    1.000
    C425     C        0.19890    0.18270    0.82740    1.000
    H534     H        0.22330    0.19320    0.82940    1.000
    C426     C        0.17120    0.19170    0.85410    1.000
    H535     H        0.17640    0.20890    0.87370    1.000
    C427     C        0.13530    0.17460    0.85120    1.000
    H536     H        0.11710    0.17970    0.87000    1.000
    C428     C        0.97940    0.12070    0.80180    1.000
    H537     H        0.98130    0.14720    0.80430    1.000
    C429     C        0.94560    0.10450    0.79050    1.000
    C430     C        0.94230    0.06580    0.78850    1.000
    H538     H        0.91910    0.05480    0.78120    1.000
    C431     C        0.97120    0.04400    0.79670    1.000
    H539     H        0.96900    0.01750    0.79500    1.000
    C432     C        0.00570    0.06090    0.80800    1.000
    H540     H        0.02610    0.04510    0.81460    1.000
    C433     C        0.22020    0.14670    0.76790    1.000
    H541     H        0.22490    0.11940    0.77010    1.000
    H542     H        0.21010    0.15160    0.74250    1.000
    C434     C        0.90880    0.11920    0.77110    1.000
    H543     H        0.90080    0.10240    0.75040    1.000
    H544     H        0.88800    0.12180    0.78930    1.000
    N113     N        0.95060    0.22030    0.79910    1.000
    N114     N        0.04419    0.17340    0.84382    1.000
    N115     N        0.12620    0.15141    0.82240    1.000
    N116     N        0.01040    0.09830    0.80950    1.000
    O85      O        0.92130    0.15570    0.75690    1.000
    H545     H        0.92900    0.17370    0.74400    1.000
    O86      O        0.25140    0.16890    0.77070    1.000
    H546     H        0.26400    0.18800    0.77900    1.000
    H547     H        0.20670    0.13720    0.74550    1.000
    H548     H        0.23450    0.16930    0.76010    1.000
    C435     C        0.91230    0.13160    0.79060    1.000
    H549     H        0.88820    0.11810    0.78730    1.000
    H550     H        0.91140    0.14660    0.81390    1.000
    O87      O        0.24660    0.11800    0.78060    1.000
    H551     H        0.24640    0.09620    0.76940    1.000
    C436     C        0.46770    0.73090    0.32510    1.000
    C437     C        0.52910    0.69960    0.35610    1.000
    C438     C        0.65300    0.64360    0.29680    1.000
    H552     H        0.64670    0.62740    0.27660    1.000
    C439     C        0.69050    0.65860    0.29830    1.000
    C440     C        0.69890    0.68270    0.32740    1.000
    H553     H        0.72330    0.69320    0.32940    1.000
    C441     C        0.67120    0.69170    0.35410    1.000
    H554     H        0.67640    0.70890    0.37370    1.000
    C442     C        0.63530    0.67460    0.35120    1.000
    H555     H        0.61710    0.67970    0.37000    1.000
    C443     C        0.47940    0.62070    0.30180    1.000
    H556     H        0.48130    0.64720    0.30430    1.000
    C444     C        0.44560    0.60450    0.29050    1.000
    C445     C        0.44230    0.56580    0.28850    1.000
    H557     H        0.41910    0.55480    0.28120    1.000
    C446     C        0.47120    0.54400    0.29670    1.000
    H558     H        0.46900    0.51750    0.29500    1.000
    C447     C        0.50570    0.56090    0.30800    1.000
    H559     H        0.52610    0.54510    0.31460    1.000
    C448     C        0.72020    0.64670    0.26790    1.000
    H560     H        0.72490    0.61940    0.27010    1.000
    H561     H        0.71010    0.65160    0.24250    1.000
    C449     C        0.40880    0.61920    0.27110    1.000
    H562     H        0.40080    0.60240    0.25040    1.000
    H563     H        0.38800    0.62180    0.28930    1.000
    N117     N        0.45060    0.72030    0.29910    1.000
    N118     N        0.54419    0.67340    0.34382    1.000
    N119     N        0.62620    0.65141    0.32240    1.000
    N120     N        0.51040    0.59830    0.30950    1.000
    O88      O        0.42130    0.65570    0.25690    1.000
    H564     H        0.42900    0.67370    0.24400    1.000
    O89      O        0.75140    0.66890    0.27070    1.000
    H565     H        0.76400    0.68800    0.27900    1.000
    H566     H        0.70670    0.63720    0.24550    1.000
    H567     H        0.73450    0.66930    0.26010    1.000
    C450     C        0.41230    0.63160    0.29060    1.000
    H568     H        0.38820    0.61810    0.28730    1.000
    H569     H        0.41140    0.64660    0.31390    1.000
    O90      O        0.74660    0.61800    0.28060    1.000
    H570     H        0.74640    0.59620    0.26940    1.000
    C451     C        0.53230    0.76910    0.32510    1.000
    C452     C        0.47090    0.80040    0.35610    1.000
    C453     C        0.34700    0.85640    0.29680    1.000
    H571     H        0.35330    0.87260    0.27660    1.000
    C454     C        0.30950    0.84140    0.29830    1.000
    C455     C        0.30110    0.81730    0.32740    1.000
    H572     H        0.27670    0.80680    0.32940    1.000
    C456     C        0.32880    0.80830    0.35410    1.000
    H573     H        0.32360    0.79110    0.37370    1.000
    C457     C        0.36470    0.82540    0.35120    1.000
    H574     H        0.38290    0.82030    0.37000    1.000
    C458     C        0.52060    0.87930    0.30180    1.000
    H575     H        0.51870    0.85280    0.30430    1.000
    C459     C        0.55440    0.89550    0.29050    1.000
    C460     C        0.55770    0.93420    0.28850    1.000
    H576     H        0.58090    0.94520    0.28120    1.000
    C461     C        0.52880    0.95600    0.29670    1.000
    H577     H        0.53100    0.98250    0.29500    1.000
    C462     C        0.49430    0.93910    0.30800    1.000
    H578     H        0.47390    0.95490    0.31460    1.000
    C463     C        0.27980    0.85330    0.26790    1.000
    H579     H        0.27510    0.88060    0.27010    1.000
    H580     H        0.28990    0.84840    0.24250    1.000
    C464     C        0.59120    0.88080    0.27110    1.000
    H581     H        0.59920    0.89760    0.25040    1.000
    H582     H        0.61200    0.87820    0.28930    1.000
    N121     N        0.54940    0.77970    0.29910    1.000
    N122     N        0.45581    0.82660    0.34382    1.000
    N123     N        0.37380    0.84859    0.32240    1.000
    N124     N        0.48960    0.90170    0.30950    1.000
    O91      O        0.57870    0.84430    0.25690    1.000
    H583     H        0.57100    0.82630    0.24400    1.000
    O92      O        0.24860    0.83110    0.27070    1.000
    H584     H        0.23600    0.81200    0.27900    1.000
    H585     H        0.29330    0.86280    0.24550    1.000
    H586     H        0.26550    0.83070    0.26010    1.000
    C465     C        0.58770    0.86840    0.29060    1.000
    H587     H        0.61180    0.88190    0.28730    1.000
    H588     H        0.58860    0.85340    0.31390    1.000
    O93      O        0.25340    0.88200    0.28060    1.000
    H589     H        0.25360    0.90380    0.26940    1.000
    C466     C        0.03230    0.26910    0.82510    1.000
    C467     C        0.97090    0.30040    0.85610    1.000
    C468     C        0.84700    0.35640    0.79680    1.000
    H590     H        0.85330    0.37260    0.77660    1.000
    C469     C        0.80950    0.34140    0.79830    1.000
    C470     C        0.80110    0.31730    0.82740    1.000
    H591     H        0.77670    0.30680    0.82940    1.000
    C471     C        0.82880    0.30830    0.85410    1.000
    H592     H        0.82360    0.29110    0.87370    1.000
    C472     C        0.86470    0.32540    0.85120    1.000
    H593     H        0.88290    0.32030    0.87000    1.000
    C473     C        0.02060    0.37930    0.80180    1.000
    H594     H        0.01870    0.35280    0.80430    1.000
    C474     C        0.05440    0.39550    0.79050    1.000
    C475     C        0.05770    0.43420    0.78850    1.000
    H595     H        0.08090    0.44520    0.78120    1.000
    C476     C        0.02880    0.45600    0.79670    1.000
    H596     H        0.03100    0.48250    0.79500    1.000
    C477     C        0.99430    0.43910    0.80800    1.000
    H597     H        0.97390    0.45490    0.81460    1.000
    C478     C        0.77980    0.35330    0.76790    1.000
    H598     H        0.77510    0.38060    0.77010    1.000
    H599     H        0.78990    0.34840    0.74250    1.000
    C479     C        0.09120    0.38080    0.77110    1.000
    H600     H        0.09920    0.39760    0.75040    1.000
    H601     H        0.11200    0.37820    0.78930    1.000
    N125     N        0.04940    0.27970    0.79910    1.000
    N126     N        0.95581    0.32660    0.84382    1.000
    N127     N        0.87380    0.34859    0.82240    1.000
    N128     N        0.98960    0.40170    0.80950    1.000
    O94      O        0.07870    0.34430    0.75690    1.000
    H602     H        0.07100    0.32630    0.74400    1.000
    O95      O        0.74860    0.33110    0.77070    1.000
    H603     H        0.73600    0.31200    0.77900    1.000
    H604     H        0.79330    0.36280    0.74550    1.000
    H605     H        0.76550    0.33070    0.76010    1.000
    C480     C        0.08770    0.36840    0.79060    1.000
    H606     H        0.11180    0.38190    0.78730    1.000
    H607     H        0.08860    0.35340    0.81390    1.000
    O96      O        0.75340    0.38200    0.78060    1.000
    H608     H        0.75360    0.40380    0.76940    1.000
    C481     C        0.76910    0.32510    0.53230    1.000
    C482     C        0.80040    0.35610    0.47090    1.000
    C483     C        0.85640    0.29680    0.34700    1.000
    H609     H        0.87260    0.27660    0.35330    1.000
    C484     C        0.84140    0.29830    0.30950    1.000
    C485     C        0.81730    0.32740    0.30110    1.000
    H610     H        0.80680    0.32940    0.27670    1.000
    C486     C        0.80830    0.35410    0.32880    1.000
    H611     H        0.79110    0.37370    0.32360    1.000
    C487     C        0.82540    0.35120    0.36470    1.000
    H612     H        0.82030    0.37000    0.38290    1.000
    C488     C        0.87930    0.30180    0.52060    1.000
    H613     H        0.85280    0.30430    0.51870    1.000
    C489     C        0.89550    0.29050    0.55440    1.000
    C490     C        0.93420    0.28850    0.55770    1.000
    H614     H        0.94520    0.28120    0.58090    1.000
    C491     C        0.95600    0.29670    0.52880    1.000
    H615     H        0.98250    0.29500    0.53100    1.000
    C492     C        0.93910    0.30800    0.49430    1.000
    H616     H        0.95490    0.31460    0.47390    1.000
    C493     C        0.85330    0.26790    0.27980    1.000
    H617     H        0.88060    0.27010    0.27510    1.000
    H618     H        0.84840    0.24250    0.28990    1.000
    C494     C        0.88080    0.27110    0.59120    1.000
    H619     H        0.89760    0.25040    0.59920    1.000
    H620     H        0.87820    0.28930    0.61200    1.000
    N129     N        0.77970    0.29910    0.54940    1.000
    N130     N        0.82660    0.34382    0.45581    1.000
    N131     N        0.84859    0.32240    0.37380    1.000
    N132     N        0.90170    0.30950    0.48960    1.000
    O97      O        0.84430    0.25690    0.57870    1.000
    H621     H        0.82630    0.24400    0.57100    1.000
    O98      O        0.83110    0.27070    0.24860    1.000
    H622     H        0.81200    0.27900    0.23600    1.000
    H623     H        0.86280    0.24550    0.29330    1.000
    H624     H        0.83070    0.26010    0.26550    1.000
    C495     C        0.86840    0.29060    0.58770    1.000
    H625     H        0.88190    0.28730    0.61180    1.000
    H626     H        0.85340    0.31390    0.58860    1.000
    O99      O        0.88200    0.28060    0.25340    1.000
    H627     H        0.90380    0.26940    0.25360    1.000
    C496     C        0.26910    0.82510    0.03230    1.000
    C497     C        0.30040    0.85610    0.97090    1.000
    C498     C        0.35640    0.79680    0.84700    1.000
    H628     H        0.37260    0.77660    0.85330    1.000
    C499     C        0.34140    0.79830    0.80950    1.000
    C500     C        0.31730    0.82740    0.80110    1.000
    H629     H        0.30680    0.82940    0.77670    1.000
    C501     C        0.30830    0.85410    0.82880    1.000
    H630     H        0.29110    0.87370    0.82360    1.000
    C502     C        0.32540    0.85120    0.86470    1.000
    H631     H        0.32030    0.87000    0.88290    1.000
    C503     C        0.37930    0.80180    0.02060    1.000
    H632     H        0.35280    0.80430    0.01870    1.000
    C504     C        0.39550    0.79050    0.05440    1.000
    C505     C        0.43420    0.78850    0.05770    1.000
    H633     H        0.44520    0.78120    0.08090    1.000
    C506     C        0.45600    0.79670    0.02880    1.000
    H634     H        0.48250    0.79500    0.03100    1.000
    C507     C        0.43910    0.80800    0.99430    1.000
    H635     H        0.45490    0.81460    0.97390    1.000
    C508     C        0.35330    0.76790    0.77980    1.000
    H636     H        0.38060    0.77010    0.77510    1.000
    H637     H        0.34840    0.74250    0.78990    1.000
    C509     C        0.38080    0.77110    0.09120    1.000
    H638     H        0.39760    0.75040    0.09920    1.000
    H639     H        0.37820    0.78930    0.11200    1.000
    N133     N        0.27970    0.79910    0.04940    1.000
    N134     N        0.32660    0.84382    0.95581    1.000
    N135     N        0.34859    0.82240    0.87380    1.000
    N136     N        0.40170    0.80950    0.98960    1.000
    O100     O        0.34430    0.75690    0.07870    1.000
    H640     H        0.32630    0.74400    0.07100    1.000
    O101     O        0.33110    0.77070    0.74860    1.000
    H641     H        0.31200    0.77900    0.73600    1.000
    H642     H        0.36280    0.74550    0.79330    1.000
    H643     H        0.33070    0.76010    0.76550    1.000
    C510     C        0.36840    0.79060    0.08770    1.000
    H644     H        0.38190    0.78730    0.11180    1.000
    H645     H        0.35340    0.81390    0.08860    1.000
    O102     O        0.38200    0.78060    0.75340    1.000
    H646     H        0.40380    0.76940    0.75360    1.000
    C511     C        0.23090    0.82510    0.96770    1.000
    C512     C        0.19960    0.85610    0.02910    1.000
    C513     C        0.14360    0.79680    0.15300    1.000
    H647     H        0.12740    0.77660    0.14670    1.000
    C514     C        0.15860    0.79830    0.19050    1.000
    C515     C        0.18270    0.82740    0.19890    1.000
    H648     H        0.19320    0.82940    0.22330    1.000
    C516     C        0.19170    0.85410    0.17120    1.000
    H649     H        0.20890    0.87370    0.17640    1.000
    C517     C        0.17460    0.85120    0.13530    1.000
    H650     H        0.17970    0.87000    0.11710    1.000
    C518     C        0.12070    0.80180    0.97940    1.000
    H651     H        0.14720    0.80430    0.98130    1.000
    C519     C        0.10450    0.79050    0.94560    1.000
    C520     C        0.06580    0.78850    0.94230    1.000
    H652     H        0.05480    0.78120    0.91910    1.000
    C521     C        0.04400    0.79670    0.97120    1.000
    H653     H        0.01750    0.79500    0.96900    1.000
    C522     C        0.06090    0.80800    0.00570    1.000
    H654     H        0.04510    0.81460    0.02610    1.000
    C523     C        0.14670    0.76790    0.22020    1.000
    H655     H        0.11940    0.77010    0.22490    1.000
    H656     H        0.15160    0.74250    0.21010    1.000
    C524     C        0.11920    0.77110    0.90880    1.000
    H657     H        0.10240    0.75040    0.90080    1.000
    H658     H        0.12180    0.78930    0.88800    1.000
    N137     N        0.22030    0.79910    0.95060    1.000
    N138     N        0.17340    0.84382    0.04419    1.000
    N139     N        0.15141    0.82240    0.12620    1.000
    N140     N        0.09830    0.80950    0.01040    1.000
    O103     O        0.15570    0.75690    0.92130    1.000
    H659     H        0.17370    0.74400    0.92900    1.000
    O104     O        0.16890    0.77070    0.25140    1.000
    H660     H        0.18800    0.77900    0.26400    1.000
    H661     H        0.13720    0.74550    0.20670    1.000
    H662     H        0.16930    0.76010    0.23450    1.000
    C525     C        0.13160    0.79060    0.91230    1.000
    H663     H        0.11810    0.78730    0.88820    1.000
    H664     H        0.14660    0.81390    0.91140    1.000
    O105     O        0.11800    0.78060    0.24660    1.000
    H665     H        0.09620    0.76940    0.24640    1.000
    C526     C        0.73090    0.32510    0.46770    1.000
    C527     C        0.69960    0.35610    0.52910    1.000
    C528     C        0.64360    0.29680    0.65300    1.000
    H666     H        0.62740    0.27660    0.64670    1.000
    C529     C        0.65860    0.29830    0.69050    1.000
    C530     C        0.68270    0.32740    0.69890    1.000
    H667     H        0.69320    0.32940    0.72330    1.000
    C531     C        0.69170    0.35410    0.67120    1.000
    H668     H        0.70890    0.37370    0.67640    1.000
    C532     C        0.67460    0.35120    0.63530    1.000
    H669     H        0.67970    0.37000    0.61710    1.000
    C533     C        0.62070    0.30180    0.47940    1.000
    H670     H        0.64720    0.30430    0.48130    1.000
    C534     C        0.60450    0.29050    0.44560    1.000
    C535     C        0.56580    0.28850    0.44230    1.000
    H671     H        0.55480    0.28120    0.41910    1.000
    C536     C        0.54400    0.29670    0.47120    1.000
    H672     H        0.51750    0.29500    0.46900    1.000
    C537     C        0.56090    0.30800    0.50570    1.000
    H673     H        0.54510    0.31460    0.52610    1.000
    C538     C        0.64670    0.26790    0.72020    1.000
    H674     H        0.61940    0.27010    0.72490    1.000
    H675     H        0.65160    0.24250    0.71010    1.000
    C539     C        0.61920    0.27110    0.40880    1.000
    H676     H        0.60240    0.25040    0.40080    1.000
    H677     H        0.62180    0.28930    0.38800    1.000
    N141     N        0.72030    0.29910    0.45060    1.000
    N142     N        0.67340    0.34382    0.54419    1.000
    N143     N        0.65141    0.32240    0.62620    1.000
    N144     N        0.59830    0.30950    0.51040    1.000
    O106     O        0.65570    0.25690    0.42130    1.000
    H678     H        0.67370    0.24400    0.42900    1.000
    O107     O        0.66890    0.27070    0.75140    1.000
    H679     H        0.68800    0.27900    0.76400    1.000
    H680     H        0.63720    0.24550    0.70670    1.000
    H681     H        0.66930    0.26010    0.73450    1.000
    C540     C        0.63160    0.29060    0.41230    1.000
    H682     H        0.61810    0.28730    0.38820    1.000
    H683     H        0.64660    0.31390    0.41140    1.000
    O108     O        0.61800    0.28060    0.74660    1.000
    H684     H        0.59620    0.26940    0.74640    1.000
    C541     C        0.73090    0.67490    0.03230    1.000
    C542     C        0.69960    0.64390    0.97090    1.000
    C543     C        0.64360    0.70320    0.84700    1.000
    H685     H        0.62740    0.72340    0.85330    1.000
    C544     C        0.65860    0.70170    0.80950    1.000
    C545     C        0.68270    0.67260    0.80110    1.000
    H686     H        0.69320    0.67060    0.77670    1.000
    C546     C        0.69170    0.64590    0.82880    1.000
    H687     H        0.70890    0.62630    0.82360    1.000
    C547     C        0.67460    0.64880    0.86470    1.000
    H688     H        0.67970    0.63000    0.88290    1.000
    C548     C        0.62070    0.69820    0.02060    1.000
    H689     H        0.64720    0.69570    0.01870    1.000
    C549     C        0.60450    0.70950    0.05440    1.000
    C550     C        0.56580    0.71150    0.05770    1.000
    H690     H        0.55480    0.71880    0.08090    1.000
    C551     C        0.54400    0.70330    0.02880    1.000
    H691     H        0.51750    0.70500    0.03100    1.000
    C552     C        0.56090    0.69200    0.99430    1.000
    H692     H        0.54510    0.68540    0.97390    1.000
    C553     C        0.64670    0.73210    0.77980    1.000
    H693     H        0.61940    0.72990    0.77510    1.000
    H694     H        0.65160    0.75750    0.78990    1.000
    C554     C        0.61920    0.72890    0.09120    1.000
    H695     H        0.60240    0.74960    0.09920    1.000
    H696     H        0.62180    0.71070    0.11200    1.000
    N145     N        0.72030    0.70090    0.04940    1.000
    N146     N        0.67340    0.65618    0.95581    1.000
    N147     N        0.65141    0.67760    0.87380    1.000
    N148     N        0.59830    0.69050    0.98960    1.000
    O109     O        0.65570    0.74310    0.07870    1.000
    H697     H        0.67370    0.75600    0.07100    1.000
    O110     O        0.66890    0.72930    0.74860    1.000
    H698     H        0.68800    0.72100    0.73600    1.000
    H699     H        0.63720    0.75450    0.79330    1.000
    H700     H        0.66930    0.73990    0.76550    1.000
    C555     C        0.63160    0.70940    0.08770    1.000
    H701     H        0.61810    0.71270    0.11180    1.000
    H702     H        0.64660    0.68610    0.08860    1.000
    O111     O        0.61800    0.71940    0.75340    1.000
    H703     H        0.59620    0.73060    0.75360    1.000
    C556     C        0.23090    0.17490    0.53230    1.000
    C557     C        0.19960    0.14390    0.47090    1.000
    C558     C        0.14360    0.20320    0.34700    1.000
    H704     H        0.12740    0.22340    0.35330    1.000
    C559     C        0.15860    0.20170    0.30950    1.000
    C560     C        0.18270    0.17260    0.30110    1.000
    H705     H        0.19320    0.17060    0.27670    1.000
    C561     C        0.19170    0.14590    0.32880    1.000
    H706     H        0.20890    0.12630    0.32360    1.000
    C562     C        0.17460    0.14880    0.36470    1.000
    H707     H        0.17970    0.13000    0.38290    1.000
    C563     C        0.12070    0.19820    0.52060    1.000
    H708     H        0.14720    0.19570    0.51870    1.000
    C564     C        0.10450    0.20950    0.55440    1.000
    C565     C        0.06580    0.21150    0.55770    1.000
    H709     H        0.05480    0.21880    0.58090    1.000
    C566     C        0.04400    0.20330    0.52880    1.000
    H710     H        0.01750    0.20500    0.53100    1.000
    C567     C        0.06090    0.19200    0.49430    1.000
    H711     H        0.04510    0.18540    0.47390    1.000
    C568     C        0.14670    0.23210    0.27980    1.000
    H712     H        0.11940    0.22990    0.27510    1.000
    H713     H        0.15160    0.25750    0.28990    1.000
    C569     C        0.11920    0.22890    0.59120    1.000
    H714     H        0.10240    0.24960    0.59920    1.000
    H715     H        0.12180    0.21070    0.61200    1.000
    N149     N        0.22030    0.20090    0.54940    1.000
    N150     N        0.17340    0.15618    0.45581    1.000
    N151     N        0.15141    0.17760    0.37380    1.000
    N152     N        0.09830    0.19050    0.48960    1.000
    O112     O        0.15570    0.24310    0.57870    1.000
    H716     H        0.17370    0.25600    0.57100    1.000
    O113     O        0.16890    0.22930    0.24860    1.000
    H717     H        0.18800    0.22100    0.23600    1.000
    H718     H        0.13720    0.25450    0.29330    1.000
    H719     H        0.16930    0.23990    0.26550    1.000
    C570     C        0.13160    0.20940    0.58770    1.000
    H720     H        0.11810    0.21270    0.61180    1.000
    H721     H        0.14660    0.18610    0.58860    1.000
    O114     O        0.11800    0.21940    0.25340    1.000
    H722     H        0.09620    0.23060    0.25360    1.000
    C571     C        0.26910    0.17490    0.46770    1.000
    C572     C        0.30040    0.14390    0.52910    1.000
    C573     C        0.35640    0.20320    0.65300    1.000
    H723     H        0.37260    0.22340    0.64670    1.000
    C574     C        0.34140    0.20170    0.69050    1.000
    C575     C        0.31730    0.17260    0.69890    1.000
    H724     H        0.30680    0.17060    0.72330    1.000
    C576     C        0.30830    0.14590    0.67120    1.000
    H725     H        0.29110    0.12630    0.67640    1.000
    C577     C        0.32540    0.14880    0.63530    1.000
    H726     H        0.32030    0.13000    0.61710    1.000
    C578     C        0.37930    0.19820    0.47940    1.000
    H727     H        0.35280    0.19570    0.48130    1.000
    C579     C        0.39550    0.20950    0.44560    1.000
    C580     C        0.43420    0.21150    0.44230    1.000
    H728     H        0.44520    0.21880    0.41910    1.000
    C581     C        0.45600    0.20330    0.47120    1.000
    H729     H        0.48250    0.20500    0.46900    1.000
    C582     C        0.43910    0.19200    0.50570    1.000
    H730     H        0.45490    0.18540    0.52610    1.000
    C583     C        0.35330    0.23210    0.72020    1.000
    H731     H        0.38060    0.22990    0.72490    1.000
    H732     H        0.34840    0.25750    0.71010    1.000
    C584     C        0.38080    0.22890    0.40880    1.000
    H733     H        0.39760    0.24960    0.40080    1.000
    H734     H        0.37820    0.21070    0.38800    1.000
    N153     N        0.27970    0.20090    0.45060    1.000
    N154     N        0.32660    0.15618    0.54419    1.000
    N155     N        0.34859    0.17760    0.62620    1.000
    N156     N        0.40170    0.19050    0.51040    1.000
    O115     O        0.34430    0.24310    0.42130    1.000
    H735     H        0.32630    0.25600    0.42900    1.000
    O116     O        0.33110    0.22930    0.75140    1.000
    H736     H        0.31200    0.22100    0.76400    1.000
    H737     H        0.36280    0.25450    0.70670    1.000
    H738     H        0.33070    0.23990    0.73450    1.000
    C585     C        0.36840    0.20940    0.41230    1.000
    H739     H        0.38190    0.21270    0.38820    1.000
    H740     H        0.35340    0.18610    0.41140    1.000
    O117     O        0.38200    0.21940    0.74660    1.000
    H741     H        0.40380    0.23060    0.74640    1.000
    C586     C        0.76910    0.67490    0.96770    1.000
    C587     C        0.80040    0.64390    0.02910    1.000
    C588     C        0.85640    0.70320    0.15300    1.000
    H742     H        0.87260    0.72340    0.14670    1.000
    C589     C        0.84140    0.70170    0.19050    1.000
    C590     C        0.81730    0.67260    0.19890    1.000
    H743     H        0.80680    0.67060    0.22330    1.000
    C591     C        0.80830    0.64590    0.17120    1.000
    H744     H        0.79110    0.62630    0.17640    1.000
    C592     C        0.82540    0.64880    0.13530    1.000
    H745     H        0.82030    0.63000    0.11710    1.000
    C593     C        0.87930    0.69820    0.97940    1.000
    H746     H        0.85280    0.69570    0.98130    1.000
    C594     C        0.89550    0.70950    0.94560    1.000
    C595     C        0.93420    0.71150    0.94230    1.000
    H747     H        0.94520    0.71880    0.91910    1.000
    C596     C        0.95600    0.70330    0.97120    1.000
    H748     H        0.98250    0.70500    0.96900    1.000
    C597     C        0.93910    0.69200    0.00570    1.000
    H749     H        0.95490    0.68540    0.02610    1.000
    C598     C        0.85330    0.73210    0.22020    1.000
    H750     H        0.88060    0.72990    0.22490    1.000
    H751     H        0.84840    0.75750    0.21010    1.000
    C599     C        0.88080    0.72890    0.90880    1.000
    H752     H        0.89760    0.74960    0.90080    1.000
    H753     H        0.87820    0.71070    0.88800    1.000
    N157     N        0.77970    0.70090    0.95060    1.000
    N158     N        0.82660    0.65618    0.04419    1.000
    N159     N        0.84859    0.67760    0.12620    1.000
    N160     N        0.90170    0.69050    0.01040    1.000
    O118     O        0.84430    0.74310    0.92130    1.000
    H754     H        0.82630    0.75600    0.92900    1.000
    O119     O        0.83110    0.72930    0.25140    1.000
    H755     H        0.81200    0.72100    0.26400    1.000
    H756     H        0.86280    0.75450    0.20670    1.000
    H757     H        0.83070    0.73990    0.23450    1.000
    C600     C        0.86840    0.70940    0.91230    1.000
    H758     H        0.88190    0.71270    0.88820    1.000
    H759     H        0.85340    0.68610    0.91140    1.000
    O120     O        0.88200    0.71940    0.24660    1.000
    H760     H        0.90380    0.73060    0.24640    1.000
    C601     C        0.82510    0.96770    0.23090    1.000
    C602     C        0.85610    0.02910    0.19960    1.000
    C603     C        0.79680    0.15300    0.14360    1.000
    H761     H        0.77660    0.14670    0.12740    1.000
    C604     C        0.79830    0.19050    0.15860    1.000
    C605     C        0.82740    0.19890    0.18270    1.000
    H762     H        0.82940    0.22330    0.19320    1.000
    C606     C        0.85410    0.17120    0.19170    1.000
    H763     H        0.87370    0.17640    0.20890    1.000
    C607     C        0.85120    0.13530    0.17460    1.000
    H764     H        0.87000    0.11710    0.17970    1.000
    C608     C        0.80180    0.97940    0.12070    1.000
    H765     H        0.80430    0.98130    0.14720    1.000
    C609     C        0.79050    0.94560    0.10450    1.000
    C610     C        0.78850    0.94230    0.06580    1.000
    H766     H        0.78120    0.91910    0.05480    1.000
    C611     C        0.79670    0.97120    0.04400    1.000
    H767     H        0.79500    0.96900    0.01750    1.000
    C612     C        0.80800    0.00570    0.06090    1.000
    H768     H        0.81460    0.02610    0.04510    1.000
    C613     C        0.76790    0.22020    0.14670    1.000
    H769     H        0.77010    0.22490    0.11940    1.000
    H770     H        0.74250    0.21010    0.15160    1.000
    C614     C        0.77110    0.90880    0.11920    1.000
    H771     H        0.75040    0.90080    0.10240    1.000
    H772     H        0.78930    0.88800    0.12180    1.000
    N161     N        0.79910    0.95060    0.22030    1.000
    N162     N        0.84382    0.04419    0.17340    1.000
    N163     N        0.82240    0.12620    0.15141    1.000
    N164     N        0.80950    0.01040    0.09830    1.000
    O121     O        0.75690    0.92130    0.15570    1.000
    H773     H        0.74400    0.92900    0.17370    1.000
    O122     O        0.77070    0.25140    0.16890    1.000
    H774     H        0.77900    0.26400    0.18800    1.000
    H775     H        0.74550    0.20670    0.13720    1.000
    H776     H        0.76010    0.23450    0.16930    1.000
    C615     C        0.79060    0.91230    0.13160    1.000
    H777     H        0.78730    0.88820    0.11810    1.000
    H778     H        0.81390    0.91140    0.14660    1.000
    O123     O        0.78060    0.24660    0.11800    1.000
    H779     H        0.76940    0.24640    0.09620    1.000
    C616     C        0.32510    0.46770    0.73090    1.000
    C617     C        0.35610    0.52910    0.69960    1.000
    C618     C        0.29680    0.65300    0.64360    1.000
    H780     H        0.27660    0.64670    0.62740    1.000
    C619     C        0.29830    0.69050    0.65860    1.000
    C620     C        0.32740    0.69890    0.68270    1.000
    H781     H        0.32940    0.72330    0.69320    1.000
    C621     C        0.35410    0.67120    0.69170    1.000
    H782     H        0.37370    0.67640    0.70890    1.000
    C622     C        0.35120    0.63530    0.67460    1.000
    H783     H        0.37000    0.61710    0.67970    1.000
    C623     C        0.30180    0.47940    0.62070    1.000
    H784     H        0.30430    0.48130    0.64720    1.000
    C624     C        0.29050    0.44560    0.60450    1.000
    C625     C        0.28850    0.44230    0.56580    1.000
    H785     H        0.28120    0.41910    0.55480    1.000
    C626     C        0.29670    0.47120    0.54400    1.000
    H786     H        0.29500    0.46900    0.51750    1.000
    C627     C        0.30800    0.50570    0.56090    1.000
    H787     H        0.31460    0.52610    0.54510    1.000
    C628     C        0.26790    0.72020    0.64670    1.000
    H788     H        0.27010    0.72490    0.61940    1.000
    H789     H        0.24250    0.71010    0.65160    1.000
    C629     C        0.27110    0.40880    0.61920    1.000
    H790     H        0.25040    0.40080    0.60240    1.000
    H791     H        0.28930    0.38800    0.62180    1.000
    N165     N        0.29910    0.45060    0.72030    1.000
    N166     N        0.34382    0.54419    0.67340    1.000
    N167     N        0.32240    0.62620    0.65141    1.000
    N168     N        0.30950    0.51040    0.59830    1.000
    O124     O        0.25690    0.42130    0.65570    1.000
    H792     H        0.24400    0.42900    0.67370    1.000
    O125     O        0.27070    0.75140    0.66890    1.000
    H793     H        0.27900    0.76400    0.68800    1.000
    H794     H        0.24550    0.70670    0.63720    1.000
    H795     H        0.26010    0.73450    0.66930    1.000
    C630     C        0.29060    0.41230    0.63160    1.000
    H796     H        0.28730    0.38820    0.61810    1.000
    H797     H        0.31390    0.41140    0.64660    1.000
    O126     O        0.28060    0.74660    0.61800    1.000
    H798     H        0.26940    0.74640    0.59620    1.000
    C631     C        0.32510    0.53230    0.76910    1.000
    C632     C        0.35610    0.47090    0.80040    1.000
    C633     C        0.29680    0.34700    0.85640    1.000
    H799     H        0.27660    0.35330    0.87260    1.000
    C634     C        0.29830    0.30950    0.84140    1.000
    C635     C        0.32740    0.30110    0.81730    1.000
    H800     H        0.32940    0.27670    0.80680    1.000
    C636     C        0.35410    0.32880    0.80830    1.000
    H801     H        0.37370    0.32360    0.79110    1.000
    C637     C        0.35120    0.36470    0.82540    1.000
    H802     H        0.37000    0.38290    0.82030    1.000
    C638     C        0.30180    0.52060    0.87930    1.000
    H803     H        0.30430    0.51870    0.85280    1.000
    C639     C        0.29050    0.55440    0.89550    1.000
    C640     C        0.28850    0.55770    0.93420    1.000
    H804     H        0.28120    0.58090    0.94520    1.000
    C641     C        0.29670    0.52880    0.95600    1.000
    H805     H        0.29500    0.53100    0.98250    1.000
    C642     C        0.30800    0.49430    0.93910    1.000
    H806     H        0.31460    0.47390    0.95490    1.000
    C643     C        0.26790    0.27980    0.85330    1.000
    H807     H        0.27010    0.27510    0.88060    1.000
    H808     H        0.24250    0.28990    0.84840    1.000
    C644     C        0.27110    0.59120    0.88080    1.000
    H809     H        0.25040    0.59920    0.89760    1.000
    H810     H        0.28930    0.61200    0.87820    1.000
    N169     N        0.29910    0.54940    0.77970    1.000
    N170     N        0.34382    0.45581    0.82660    1.000
    N171     N        0.32240    0.37380    0.84859    1.000
    N172     N        0.30950    0.48960    0.90170    1.000
    O127     O        0.25690    0.57870    0.84430    1.000
    H811     H        0.24400    0.57100    0.82630    1.000
    O128     O        0.27070    0.24860    0.83110    1.000
    H812     H        0.27900    0.23600    0.81200    1.000
    H813     H        0.24550    0.29330    0.86280    1.000
    H814     H        0.26010    0.26550    0.83070    1.000
    C645     C        0.29060    0.58770    0.86840    1.000
    H815     H        0.28730    0.61180    0.88190    1.000
    H816     H        0.31390    0.58860    0.85340    1.000
    O129     O        0.28060    0.25340    0.88200    1.000
    H817     H        0.26940    0.25360    0.90380    1.000
    C646     C        0.82510    0.03230    0.26910    1.000
    C647     C        0.85610    0.97090    0.30040    1.000
    C648     C        0.79680    0.84700    0.35640    1.000
    H818     H        0.77660    0.85330    0.37260    1.000
    C649     C        0.79830    0.80950    0.34140    1.000
    C650     C        0.82740    0.80110    0.31730    1.000
    H819     H        0.82940    0.77670    0.30680    1.000
    C651     C        0.85410    0.82880    0.30830    1.000
    H820     H        0.87370    0.82360    0.29110    1.000
    C652     C        0.85120    0.86470    0.32540    1.000
    H821     H        0.87000    0.88290    0.32030    1.000
    C653     C        0.80180    0.02060    0.37930    1.000
    H822     H        0.80430    0.01870    0.35280    1.000
    C654     C        0.79050    0.05440    0.39550    1.000
    C655     C        0.78850    0.05770    0.43420    1.000
    H823     H        0.78120    0.08090    0.44520    1.000
    C656     C        0.79670    0.02880    0.45600    1.000
    H824     H        0.79500    0.03100    0.48250    1.000
    C657     C        0.80800    0.99430    0.43910    1.000
    H825     H        0.81460    0.97390    0.45490    1.000
    C658     C        0.76790    0.77980    0.35330    1.000
    H826     H        0.77010    0.77510    0.38060    1.000
    H827     H        0.74250    0.78990    0.34840    1.000
    C659     C        0.77110    0.09120    0.38080    1.000
    H828     H        0.75040    0.09920    0.39760    1.000
    H829     H        0.78930    0.11200    0.37820    1.000
    N173     N        0.79910    0.04940    0.27970    1.000
    N174     N        0.84382    0.95581    0.32660    1.000
    N175     N        0.82240    0.87380    0.34859    1.000
    N176     N        0.80950    0.98960    0.40170    1.000
    O130     O        0.75690    0.07870    0.34430    1.000
    H830     H        0.74400    0.07100    0.32630    1.000
    O131     O        0.77070    0.74860    0.33110    1.000
    H831     H        0.77900    0.73600    0.31200    1.000
    H832     H        0.74550    0.79330    0.36280    1.000
    H833     H        0.76010    0.76550    0.33070    1.000
    C660     C        0.79060    0.08770    0.36840    1.000
    H834     H        0.78730    0.11180    0.38190    1.000
    H835     H        0.81390    0.08860    0.35340    1.000
    O132     O        0.78060    0.75340    0.38200    1.000
    H836     H        0.76940    0.75360    0.40380    1.000
    C661     C        0.17490    0.46770    0.26910    1.000
    C662     C        0.14390    0.52910    0.30040    1.000
    C663     C        0.20320    0.65300    0.35640    1.000
    H837     H        0.22340    0.64670    0.37260    1.000
    C664     C        0.20170    0.69050    0.34140    1.000
    C665     C        0.17260    0.69890    0.31730    1.000
    H838     H        0.17060    0.72330    0.30680    1.000
    C666     C        0.14590    0.67120    0.30830    1.000
    H839     H        0.12630    0.67640    0.29110    1.000
    C667     C        0.14880    0.63530    0.32540    1.000
    H840     H        0.13000    0.61710    0.32030    1.000
    C668     C        0.19820    0.47940    0.37930    1.000
    H841     H        0.19570    0.48130    0.35280    1.000
    C669     C        0.20950    0.44560    0.39550    1.000
    C670     C        0.21150    0.44230    0.43420    1.000
    H842     H        0.21880    0.41910    0.44520    1.000
    C671     C        0.20330    0.47120    0.45600    1.000
    H843     H        0.20500    0.46900    0.48250    1.000
    C672     C        0.19200    0.50570    0.43910    1.000
    H844     H        0.18540    0.52610    0.45490    1.000
    C673     C        0.23210    0.72020    0.35330    1.000
    H845     H        0.22990    0.72490    0.38060    1.000
    H846     H        0.25750    0.71010    0.34840    1.000
    C674     C        0.22890    0.40880    0.38080    1.000
    H847     H        0.24960    0.40080    0.39760    1.000
    H848     H        0.21070    0.38800    0.37820    1.000
    N177     N        0.20090    0.45060    0.27970    1.000
    N178     N        0.15618    0.54419    0.32660    1.000
    N179     N        0.17760    0.62620    0.34859    1.000
    N180     N        0.19050    0.51040    0.40170    1.000
    O133     O        0.24310    0.42130    0.34430    1.000
    H849     H        0.25600    0.42900    0.32630    1.000
    O134     O        0.22930    0.75140    0.33110    1.000
    H850     H        0.22100    0.76400    0.31200    1.000
    H851     H        0.25450    0.70670    0.36280    1.000
    H852     H        0.23990    0.73450    0.33070    1.000
    C675     C        0.20940    0.41230    0.36840    1.000
    H853     H        0.21270    0.38820    0.38190    1.000
    H854     H        0.18610    0.41140    0.35340    1.000
    O135     O        0.21940    0.74660    0.38200    1.000
    H855     H        0.23060    0.74640    0.40380    1.000
    C676     C        0.67490    0.96770    0.76910    1.000
    C677     C        0.64390    0.02910    0.80040    1.000
    C678     C        0.70320    0.15300    0.85640    1.000
    H856     H        0.72340    0.14670    0.87260    1.000
    C679     C        0.70170    0.19050    0.84140    1.000
    C680     C        0.67260    0.19890    0.81730    1.000
    H857     H        0.67060    0.22330    0.80680    1.000
    C681     C        0.64590    0.17120    0.80830    1.000
    H858     H        0.62630    0.17640    0.79110    1.000
    C682     C        0.64880    0.13530    0.82540    1.000
    H859     H        0.63000    0.11710    0.82030    1.000
    C683     C        0.69820    0.97940    0.87930    1.000
    H860     H        0.69570    0.98130    0.85280    1.000
    C684     C        0.70950    0.94560    0.89550    1.000
    C685     C        0.71150    0.94230    0.93420    1.000
    H861     H        0.71880    0.91910    0.94520    1.000
    C686     C        0.70330    0.97120    0.95600    1.000
    H862     H        0.70500    0.96900    0.98250    1.000
    C687     C        0.69200    0.00570    0.93910    1.000
    H863     H        0.68540    0.02610    0.95490    1.000
    C688     C        0.73210    0.22020    0.85330    1.000
    H864     H        0.72990    0.22490    0.88060    1.000
    H865     H        0.75750    0.21010    0.84840    1.000
    C689     C        0.72890    0.90880    0.88080    1.000
    H866     H        0.74960    0.90080    0.89760    1.000
    H867     H        0.71070    0.88800    0.87820    1.000
    N181     N        0.70090    0.95060    0.77970    1.000
    N182     N        0.65618    0.04419    0.82660    1.000
    N183     N        0.67760    0.12620    0.84859    1.000
    N184     N        0.69050    0.01040    0.90170    1.000
    O136     O        0.74310    0.92130    0.84430    1.000
    H868     H        0.75600    0.92900    0.82630    1.000
    O137     O        0.72930    0.25140    0.83110    1.000
    H869     H        0.72100    0.26400    0.81200    1.000
    H870     H        0.75450    0.20670    0.86280    1.000
    H871     H        0.73990    0.23450    0.83070    1.000
    C690     C        0.70940    0.91230    0.86840    1.000
    H872     H        0.71270    0.88820    0.88190    1.000
    H873     H        0.68610    0.91140    0.85340    1.000
    O138     O        0.71940    0.24660    0.88200    1.000
    H874     H        0.73060    0.24640    0.90380    1.000
    C691     C        0.67490    0.03230    0.73090    1.000
    C692     C        0.64390    0.97090    0.69960    1.000
    C693     C        0.70320    0.84700    0.64360    1.000
    H875     H        0.72340    0.85330    0.62740    1.000
    C694     C        0.70170    0.80950    0.65860    1.000
    C695     C        0.67260    0.80110    0.68270    1.000
    H876     H        0.67060    0.77670    0.69320    1.000
    C696     C        0.64590    0.82880    0.69170    1.000
    H877     H        0.62630    0.82360    0.70890    1.000
    C697     C        0.64880    0.86470    0.67460    1.000
    H878     H        0.63000    0.88290    0.67970    1.000
    C698     C        0.69820    0.02060    0.62070    1.000
    H879     H        0.69570    0.01870    0.64720    1.000
    C699     C        0.70950    0.05440    0.60450    1.000
    C700     C        0.71150    0.05770    0.56580    1.000
    H880     H        0.71880    0.08090    0.55480    1.000
    C701     C        0.70330    0.02880    0.54400    1.000
    H881     H        0.70500    0.03100    0.51750    1.000
    C702     C        0.69200    0.99430    0.56090    1.000
    H882     H        0.68540    0.97390    0.54510    1.000
    C703     C        0.73210    0.77980    0.64670    1.000
    H883     H        0.72990    0.77510    0.61940    1.000
    H884     H        0.75750    0.78990    0.65160    1.000
    C704     C        0.72890    0.09120    0.61920    1.000
    H885     H        0.74960    0.09920    0.60240    1.000
    H886     H        0.71070    0.11200    0.62180    1.000
    N185     N        0.70090    0.04940    0.72030    1.000
    N186     N        0.65618    0.95581    0.67340    1.000
    N187     N        0.67760    0.87380    0.65141    1.000
    N188     N        0.69050    0.98960    0.59830    1.000
    O139     O        0.74310    0.07870    0.65570    1.000
    H887     H        0.75600    0.07100    0.67370    1.000
    O140     O        0.72930    0.74860    0.66890    1.000
    H888     H        0.72100    0.73600    0.68800    1.000
    H889     H        0.75450    0.79330    0.63720    1.000
    H890     H        0.73990    0.76550    0.66930    1.000
    C705     C        0.70940    0.08770    0.63160    1.000
    H891     H        0.71270    0.11180    0.61810    1.000
    H892     H        0.68610    0.08860    0.64660    1.000
    O141     O        0.71940    0.75340    0.61800    1.000
    H893     H        0.73060    0.75360    0.59620    1.000
    C706     C        0.17490    0.53230    0.23090    1.000
    C707     C        0.14390    0.47090    0.19960    1.000
    C708     C        0.20320    0.34700    0.14360    1.000
    H894     H        0.22340    0.35330    0.12740    1.000
    C709     C        0.20170    0.30950    0.15860    1.000
    C710     C        0.17260    0.30110    0.18270    1.000
    H895     H        0.17060    0.27670    0.19320    1.000
    C711     C        0.14590    0.32880    0.19170    1.000
    H896     H        0.12630    0.32360    0.20890    1.000
    C712     C        0.14880    0.36470    0.17460    1.000
    H897     H        0.13000    0.38290    0.17970    1.000
    C713     C        0.19820    0.52060    0.12070    1.000
    H898     H        0.19570    0.51870    0.14720    1.000
    C714     C        0.20950    0.55440    0.10450    1.000
    C715     C        0.21150    0.55770    0.06580    1.000
    H899     H        0.21880    0.58090    0.05480    1.000
    C716     C        0.20330    0.52880    0.04400    1.000
    H900     H        0.20500    0.53100    0.01750    1.000
    C717     C        0.19200    0.49430    0.06090    1.000
    H901     H        0.18540    0.47390    0.04510    1.000
    C718     C        0.23210    0.27980    0.14670    1.000
    H902     H        0.22990    0.27510    0.11940    1.000
    H903     H        0.25750    0.28990    0.15160    1.000
    C719     C        0.22890    0.59120    0.11920    1.000
    H904     H        0.24960    0.59920    0.10240    1.000
    H905     H        0.21070    0.61200    0.12180    1.000
    N189     N        0.20090    0.54940    0.22030    1.000
    N190     N        0.15618    0.45581    0.17340    1.000
    N191     N        0.17760    0.37380    0.15141    1.000
    N192     N        0.19050    0.48960    0.09830    1.000
    O142     O        0.24310    0.57870    0.15570    1.000
    H906     H        0.25600    0.57100    0.17370    1.000
    O143     O        0.22930    0.24860    0.16890    1.000
    H907     H        0.22100    0.23600    0.18800    1.000
    H908     H        0.25450    0.29330    0.13720    1.000
    H909     H        0.23990    0.26550    0.16930    1.000
    C720     C        0.20940    0.58770    0.13160    1.000
    H910     H        0.21270    0.61180    0.11810    1.000
    H911     H        0.18610    0.58860    0.14660    1.000
    O144     O        0.21940    0.25340    0.11800    1.000
    H912     H        0.23060    0.25360    0.09620    1.000
    C721     C        0.98090    0.28230    0.92490    1.000
    C722     C        0.94960    0.22090    0.89390    1.000
    C723     C        0.89360    0.09700    0.95320    1.000
    H913     H        0.87740    0.10330    0.97340    1.000
    C724     C        0.90860    0.05950    0.95170    1.000
    C725     C        0.93270    0.05110    0.92260    1.000
    H914     H        0.94320    0.02670    0.92060    1.000
    C726     C        0.94170    0.07880    0.89590    1.000
    H915     H        0.95890    0.07360    0.87630    1.000
    C727     C        0.92460    0.11470    0.89880    1.000
    H916     H        0.92970    0.13290    0.88000    1.000
    C728     C        0.87070    0.27060    0.94820    1.000
    H917     H        0.89720    0.26870    0.94570    1.000
    C729     C        0.85450    0.30440    0.95950    1.000
    C730     C        0.81580    0.30770    0.96150    1.000
    H918     H        0.80480    0.33090    0.96880    1.000
    C731     C        0.79400    0.27880    0.95330    1.000
    H919     H        0.76750    0.28100    0.95500    1.000
    C732     C        0.81090    0.24430    0.94200    1.000
    H920     H        0.79510    0.22390    0.93540    1.000
    C733     C        0.89670    0.02980    0.98210    1.000
    H921     H        0.86940    0.02510    0.97990    1.000
    H922     H        0.90160    0.03990    0.00750    1.000
    C734     C        0.86920    0.34120    0.97890    1.000
    H923     H        0.85240    0.34920    0.99960    1.000
    H924     H        0.87180    0.36200    0.96070    1.000
    N193     N        0.97030    0.29940    0.95090    1.000
    N194     N        0.92340    0.20581    0.90618    1.000
    N195     N        0.90141    0.12380    0.92760    1.000
    N196     N        0.84830    0.23960    0.94050    1.000
    O145     O        0.90570    0.32870    0.99310    1.000
    H925     H        0.92370    0.32100    0.00600    1.000
    O146     O        0.91890    0.99860    0.97930    1.000
    H926     H        0.93800    0.98600    0.97100    1.000
    H927     H        0.88720    0.04330    0.00450    1.000
    H928     H        0.91930    0.01550    0.98990    1.000
    C735     C        0.88160    0.33770    0.95940    1.000
    H929     H        0.86810    0.36180    0.96270    1.000
    H930     H        0.89660    0.33860    0.93610    1.000
    O147     O        0.86800    0.00340    0.96940    1.000
    H931     H        0.84620    0.00360    0.98060    1.000
    C736     C        0.48090    0.78230    0.42490    1.000
    C737     C        0.44960    0.72090    0.39390    1.000
    C738     C        0.39360    0.59700    0.45320    1.000
    H932     H        0.37740    0.60330    0.47340    1.000
    C739     C        0.40860    0.55950    0.45170    1.000
    C740     C        0.43270    0.55110    0.42260    1.000
    H933     H        0.44320    0.52670    0.42060    1.000
    C741     C        0.44170    0.57880    0.39590    1.000
    H934     H        0.45890    0.57360    0.37630    1.000
    C742     C        0.42460    0.61470    0.39880    1.000
    H935     H        0.42970    0.63290    0.38000    1.000
    C743     C        0.37070    0.77060    0.44820    1.000
    H936     H        0.39720    0.76870    0.44570    1.000
    C744     C        0.35450    0.80440    0.45950    1.000
    C745     C        0.31580    0.80770    0.46150    1.000
    H937     H        0.30480    0.83090    0.46880    1.000
    C746     C        0.29400    0.77880    0.45330    1.000
    H938     H        0.26750    0.78100    0.45500    1.000
    C747     C        0.31090    0.74430    0.44200    1.000
    H939     H        0.29510    0.72390    0.43540    1.000
    C748     C        0.39670    0.52980    0.48210    1.000
    H940     H        0.36940    0.52510    0.47990    1.000
    H941     H        0.40160    0.53990    0.50750    1.000
    C749     C        0.36920    0.84120    0.47890    1.000
    H942     H        0.35240    0.84920    0.49960    1.000
    H943     H        0.37180    0.86200    0.46070    1.000
    N197     N        0.47030    0.79940    0.45090    1.000
    N198     N        0.42340    0.70581    0.40618    1.000
    N199     N        0.40141    0.62380    0.42760    1.000
    N200     N        0.34830    0.73960    0.44050    1.000
    O148     O        0.40570    0.82870    0.49310    1.000
    H944     H        0.42370    0.82100    0.50600    1.000
    O149     O        0.41890    0.49860    0.47930    1.000
    H945     H        0.43800    0.48600    0.47100    1.000
    H946     H        0.38720    0.54330    0.50450    1.000
    H947     H        0.41930    0.51550    0.48990    1.000
    C750     C        0.38160    0.83770    0.45940    1.000
    H948     H        0.36810    0.86180    0.46270    1.000
    H949     H        0.39660    0.83860    0.43610    1.000
    O150     O        0.36800    0.50340    0.46940    1.000
    H950     H        0.34620    0.50360    0.48060    1.000
    C751     C        0.51910    0.71770    0.42490    1.000
    C752     C        0.55040    0.77910    0.39390    1.000
    C753     C        0.60640    0.90300    0.45320    1.000
    H951     H        0.62260    0.89670    0.47340    1.000
    C754     C        0.59140    0.94050    0.45170    1.000
    C755     C        0.56730    0.94890    0.42260    1.000
    H952     H        0.55680    0.97330    0.42060    1.000
    C756     C        0.55830    0.92120    0.39590    1.000
    H953     H        0.54110    0.92640    0.37630    1.000
    C757     C        0.57540    0.88530    0.39880    1.000
    H954     H        0.57030    0.86710    0.38000    1.000
    C758     C        0.62930    0.72940    0.44820    1.000
    H955     H        0.60280    0.73130    0.44570    1.000
    C759     C        0.64550    0.69560    0.45950    1.000
    C760     C        0.68420    0.69230    0.46150    1.000
    H956     H        0.69520    0.66910    0.46880    1.000
    C761     C        0.70600    0.72120    0.45330    1.000
    H957     H        0.73250    0.71900    0.45500    1.000
    C762     C        0.68910    0.75570    0.44200    1.000
    H958     H        0.70490    0.77610    0.43540    1.000
    C763     C        0.60330    0.97020    0.48210    1.000
    H959     H        0.63060    0.97490    0.47990    1.000
    H960     H        0.59840    0.96010    0.50750    1.000
    C764     C        0.63080    0.65880    0.47890    1.000
    H961     H        0.64760    0.65080    0.49960    1.000
    H962     H        0.62820    0.63800    0.46070    1.000
    N201     N        0.52970    0.70060    0.45090    1.000
    N202     N        0.57660    0.79419    0.40618    1.000
    N203     N        0.59859    0.87620    0.42760    1.000
    N204     N        0.65170    0.76040    0.44050    1.000
    O151     O        0.59430    0.67130    0.49310    1.000
    H963     H        0.57630    0.67900    0.50600    1.000
    O152     O        0.58110    0.00140    0.47930    1.000
    H964     H        0.56200    0.01400    0.47100    1.000
    H965     H        0.61280    0.95670    0.50450    1.000
    H966     H        0.58070    0.98450    0.48990    1.000
    C765     C        0.61840    0.66230    0.45940    1.000
    H967     H        0.63190    0.63820    0.46270    1.000
    H968     H        0.60340    0.66140    0.43610    1.000
    O153     O        0.63200    0.99660    0.46940    1.000
    H969     H        0.65380    0.99640    0.48060    1.000
    C766     C        0.01910    0.21770    0.92490    1.000
    C767     C        0.05040    0.27910    0.89390    1.000
    C768     C        0.10640    0.40300    0.95320    1.000
    H970     H        0.12260    0.39670    0.97340    1.000
    C769     C        0.09140    0.44050    0.95170    1.000
    C770     C        0.06730    0.44890    0.92260    1.000
    H971     H        0.05680    0.47330    0.92060    1.000
    C771     C        0.05830    0.42120    0.89590    1.000
    H972     H        0.04110    0.42640    0.87630    1.000
    C772     C        0.07540    0.38530    0.89880    1.000
    H973     H        0.07030    0.36710    0.88000    1.000
    C773     C        0.12930    0.22940    0.94820    1.000
    H974     H        0.10280    0.23130    0.94570    1.000
    C774     C        0.14550    0.19560    0.95950    1.000
    C775     C        0.18420    0.19230    0.96150    1.000
    H975     H        0.19520    0.16910    0.96880    1.000
    C776     C        0.20600    0.22120    0.95330    1.000
    H976     H        0.23250    0.21900    0.95500    1.000
    C777     C        0.18910    0.25570    0.94200    1.000
    H977     H        0.20490    0.27610    0.93540    1.000
    C778     C        0.10330    0.47020    0.98210    1.000
    H978     H        0.13060    0.47490    0.97990    1.000
    H979     H        0.09840    0.46010    0.00750    1.000
    C779     C        0.13080    0.15880    0.97890    1.000
    H980     H        0.14760    0.15080    0.99960    1.000
    H981     H        0.12820    0.13800    0.96070    1.000
    N205     N        0.02970    0.20060    0.95090    1.000
    N206     N        0.07660    0.29419    0.90618    1.000
    N207     N        0.09859    0.37620    0.92760    1.000
    N208     N        0.15170    0.26040    0.94050    1.000
    O154     O        0.09430    0.17130    0.99310    1.000
    H982     H        0.07630    0.17900    0.00600    1.000
    O155     O        0.08110    0.50140    0.97930    1.000
    H983     H        0.06200    0.51400    0.97100    1.000
    H984     H        0.11280    0.45670    0.00450    1.000
    H985     H        0.08070    0.48450    0.98990    1.000
    C780     C        0.11840    0.16230    0.95940    1.000
    H986     H        0.13190    0.13820    0.96270    1.000
    H987     H        0.10340    0.16140    0.93610    1.000
    O156     O        0.13200    0.49660    0.96940    1.000
    H988     H        0.15380    0.49640    0.98060    1.000
    C781     C        0.01910    0.78230    0.57510    1.000
    C782     C        0.05040    0.72090    0.60610    1.000
    C783     C        0.10640    0.59700    0.54680    1.000
    H989     H        0.12260    0.60330    0.52660    1.000
    C784     C        0.09140    0.55950    0.54830    1.000
    C785     C        0.06730    0.55110    0.57740    1.000
    H990     H        0.05680    0.52670    0.57940    1.000
    C786     C        0.05830    0.57880    0.60410    1.000
    H991     H        0.04110    0.57360    0.62370    1.000
    C787     C        0.07540    0.61470    0.60120    1.000
    H992     H        0.07030    0.63290    0.62000    1.000
    C788     C        0.12930    0.77060    0.55180    1.000
    H993     H        0.10280    0.76870    0.55430    1.000
    C789     C        0.14550    0.80440    0.54050    1.000
    C790     C        0.18420    0.80770    0.53850    1.000
    H994     H        0.19520    0.83090    0.53120    1.000
    C791     C        0.20600    0.77880    0.54670    1.000
    H995     H        0.23250    0.78100    0.54500    1.000
    C792     C        0.18910    0.74430    0.55800    1.000
    H996     H        0.20490    0.72390    0.56460    1.000
    C793     C        0.10330    0.52980    0.51790    1.000
    H997     H        0.13060    0.52510    0.52010    1.000
    H998     H        0.09840    0.53990    0.49250    1.000
    C794     C        0.13080    0.84120    0.52110    1.000
    H999     H        0.14760    0.84920    0.50040    1.000
    H1000    H        0.12820    0.86200    0.53930    1.000
    N209     N        0.02970    0.79940    0.54910    1.000
    N210     N        0.07660    0.70581    0.59382    1.000
    N211     N        0.09859    0.62380    0.57240    1.000
    N212     N        0.15170    0.73960    0.55950    1.000
    O157     O        0.09430    0.82870    0.50690    1.000
    H1001    H        0.07630    0.82100    0.49400    1.000
    O158     O        0.08110    0.49860    0.52070    1.000
    H1002    H        0.06200    0.48600    0.52900    1.000
    H1003    H        0.11280    0.54330    0.49550    1.000
    H1004    H        0.08070    0.51550    0.51010    1.000
    C795     C        0.11840    0.83770    0.54060    1.000
    H1005    H        0.13190    0.86180    0.53730    1.000
    H1006    H        0.10340    0.83860    0.56390    1.000
    O159     O        0.13200    0.50340    0.53060    1.000
    H1007    H        0.15380    0.50360    0.51940    1.000
    C796     C        0.51910    0.28230    0.07510    1.000
    C797     C        0.55040    0.22090    0.10610    1.000
    C798     C        0.60640    0.09700    0.04680    1.000
    H1008    H        0.62260    0.10330    0.02660    1.000
    C799     C        0.59140    0.05950    0.04830    1.000
    C800     C        0.56730    0.05110    0.07740    1.000
    H1009    H        0.55680    0.02670    0.07940    1.000
    C801     C        0.55830    0.07880    0.10410    1.000
    H1010    H        0.54110    0.07360    0.12370    1.000
    C802     C        0.57540    0.11470    0.10120    1.000
    H1011    H        0.57030    0.13290    0.12000    1.000
    C803     C        0.62930    0.27060    0.05180    1.000
    H1012    H        0.60280    0.26870    0.05430    1.000
    C804     C        0.64550    0.30440    0.04050    1.000
    C805     C        0.68420    0.30770    0.03850    1.000
    H1013    H        0.69520    0.33090    0.03120    1.000
    C806     C        0.70600    0.27880    0.04670    1.000
    H1014    H        0.73250    0.28100    0.04500    1.000
    C807     C        0.68910    0.24430    0.05800    1.000
    H1015    H        0.70490    0.22390    0.06460    1.000
    C808     C        0.60330    0.02980    0.01790    1.000
    H1016    H        0.63060    0.02510    0.02010    1.000
    H1017    H        0.59840    0.03990    0.99250    1.000
    C809     C        0.63080    0.34120    0.02110    1.000
    H1018    H        0.64760    0.34920    0.00040    1.000
    H1019    H        0.62820    0.36200    0.03930    1.000
    N213     N        0.52970    0.29940    0.04910    1.000
    N214     N        0.57660    0.20581    0.09382    1.000
    N215     N        0.59859    0.12380    0.07240    1.000
    N216     N        0.65170    0.23960    0.05950    1.000
    O160     O        0.59430    0.32870    0.00690    1.000
    H1020    H        0.57630    0.32100    0.99400    1.000
    O161     O        0.58110    0.99860    0.02070    1.000
    H1021    H        0.56200    0.98600    0.02900    1.000
    H1022    H        0.61280    0.04330    0.99550    1.000
    H1023    H        0.58070    0.01550    0.01010    1.000
    C810     C        0.61840    0.33770    0.04060    1.000
    H1024    H        0.63190    0.36180    0.03730    1.000
    H1025    H        0.60340    0.33860    0.06390    1.000
    O162     O        0.63200    0.00340    0.03060    1.000
    H1026    H        0.65380    0.00360    0.01940    1.000
    C811     C        0.48090    0.21770    0.07510    1.000
    C812     C        0.44960    0.27910    0.10610    1.000
    C813     C        0.39360    0.40300    0.04680    1.000
    H1027    H        0.37740    0.39670    0.02660    1.000
    C814     C        0.40860    0.44050    0.04830    1.000
    C815     C        0.43270    0.44890    0.07740    1.000
    H1028    H        0.44320    0.47330    0.07940    1.000
    C816     C        0.44170    0.42120    0.10410    1.000
    H1029    H        0.45890    0.42640    0.12370    1.000
    C817     C        0.42460    0.38530    0.10120    1.000
    H1030    H        0.42970    0.36710    0.12000    1.000
    C818     C        0.37070    0.22940    0.05180    1.000
    H1031    H        0.39720    0.23130    0.05430    1.000
    C819     C        0.35450    0.19560    0.04050    1.000
    C820     C        0.31580    0.19230    0.03850    1.000
    H1032    H        0.30480    0.16910    0.03120    1.000
    C821     C        0.29400    0.22120    0.04670    1.000
    H1033    H        0.26750    0.21900    0.04500    1.000
    C822     C        0.31090    0.25570    0.05800    1.000
    H1034    H        0.29510    0.27610    0.06460    1.000
    C823     C        0.39670    0.47020    0.01790    1.000
    H1035    H        0.36940    0.47490    0.02010    1.000
    H1036    H        0.40160    0.46010    0.99250    1.000
    C824     C        0.36920    0.15880    0.02110    1.000
    H1037    H        0.35240    0.15080    0.00040    1.000
    H1038    H        0.37180    0.13800    0.03930    1.000
    N217     N        0.47030    0.20060    0.04910    1.000
    N218     N        0.42340    0.29419    0.09382    1.000
    N219     N        0.40141    0.37620    0.07240    1.000
    N220     N        0.34830    0.26040    0.05950    1.000
    O163     O        0.40570    0.17130    0.00690    1.000
    H1039    H        0.42370    0.17900    0.99400    1.000
    O164     O        0.41890    0.50140    0.02070    1.000
    H1040    H        0.43800    0.51400    0.02900    1.000
    H1041    H        0.38720    0.45670    0.99550    1.000
    H1042    H        0.41930    0.48450    0.01010    1.000
    C825     C        0.38160    0.16230    0.04060    1.000
    H1043    H        0.36810    0.13820    0.03730    1.000
    H1044    H        0.39660    0.16140    0.06390    1.000
    O165     O        0.36800    0.49660    0.03060    1.000
    H1045    H        0.34620    0.49640    0.01940    1.000
    C826     C        0.98090    0.71770    0.57510    1.000
    C827     C        0.94960    0.77910    0.60610    1.000
    C828     C        0.89360    0.90300    0.54680    1.000
    H1046    H        0.87740    0.89670    0.52660    1.000
    C829     C        0.90860    0.94050    0.54830    1.000
    C830     C        0.93270    0.94890    0.57740    1.000
    H1047    H        0.94320    0.97330    0.57940    1.000
    C831     C        0.94170    0.92120    0.60410    1.000
    H1048    H        0.95890    0.92640    0.62370    1.000
    C832     C        0.92460    0.88530    0.60120    1.000
    H1049    H        0.92970    0.86710    0.62000    1.000
    C833     C        0.87070    0.72940    0.55180    1.000
    H1050    H        0.89720    0.73130    0.55430    1.000
    C834     C        0.85450    0.69560    0.54050    1.000
    C835     C        0.81580    0.69230    0.53850    1.000
    H1051    H        0.80480    0.66910    0.53120    1.000
    C836     C        0.79400    0.72120    0.54670    1.000
    H1052    H        0.76750    0.71900    0.54500    1.000
    C837     C        0.81090    0.75570    0.55800    1.000
    H1053    H        0.79510    0.77610    0.56460    1.000
    C838     C        0.89670    0.97020    0.51790    1.000
    H1054    H        0.86940    0.97490    0.52010    1.000
    H1055    H        0.90160    0.96010    0.49250    1.000
    C839     C        0.86920    0.65880    0.52110    1.000
    H1056    H        0.85240    0.65080    0.50040    1.000
    H1057    H        0.87180    0.63800    0.53930    1.000
    N221     N        0.97030    0.70060    0.54910    1.000
    N222     N        0.92340    0.79419    0.59382    1.000
    N223     N        0.90141    0.87620    0.57240    1.000
    N224     N        0.84830    0.76040    0.55950    1.000
    O166     O        0.90570    0.67130    0.50690    1.000
    H1058    H        0.92370    0.67900    0.49400    1.000
    O167     O        0.91890    0.00140    0.52070    1.000
    H1059    H        0.93800    0.01400    0.52900    1.000
    H1060    H        0.88720    0.95670    0.49550    1.000
    H1061    H        0.91930    0.98450    0.51010    1.000
    C840     C        0.88160    0.66230    0.54060    1.000
    H1062    H        0.86810    0.63820    0.53730    1.000
    H1063    H        0.89660    0.66140    0.56390    1.000
    O168     O        0.86800    0.99660    0.53060    1.000
    H1064    H        0.84620    0.99640    0.51940    1.000
    C841     C        0.92490    0.98090    0.28230    1.000
    C842     C        0.89390    0.94960    0.22090    1.000
    C843     C        0.95320    0.89360    0.09700    1.000
    H1065    H        0.97340    0.87740    0.10330    1.000
    C844     C        0.95170    0.90860    0.05950    1.000
    C845     C        0.92260    0.93270    0.05110    1.000
    H1066    H        0.92060    0.94320    0.02670    1.000
    C846     C        0.89590    0.94170    0.07880    1.000
    H1067    H        0.87630    0.95890    0.07360    1.000
    C847     C        0.89880    0.92460    0.11470    1.000
    H1068    H        0.88000    0.92970    0.13290    1.000
    C848     C        0.94820    0.87070    0.27060    1.000
    H1069    H        0.94570    0.89720    0.26870    1.000
    C849     C        0.95950    0.85450    0.30440    1.000
    C850     C        0.96150    0.81580    0.30770    1.000
    H1070    H        0.96880    0.80480    0.33090    1.000
    C851     C        0.95330    0.79400    0.27880    1.000
    H1071    H        0.95500    0.76750    0.28100    1.000
    C852     C        0.94200    0.81090    0.24430    1.000
    H1072    H        0.93540    0.79510    0.22390    1.000
    C853     C        0.98210    0.89670    0.02980    1.000
    H1073    H        0.97990    0.86940    0.02510    1.000
    H1074    H        0.00750    0.90160    0.03990    1.000
    C854     C        0.97890    0.86920    0.34120    1.000
    H1075    H        0.99960    0.85240    0.34920    1.000
    H1076    H        0.96070    0.87180    0.36200    1.000
    N225     N        0.95090    0.97030    0.29940    1.000
    N226     N        0.90618    0.92340    0.20581    1.000
    N227     N        0.92760    0.90141    0.12380    1.000
    N228     N        0.94050    0.84830    0.23960    1.000
    O169     O        0.99310    0.90570    0.32870    1.000
    H1077    H        0.00600    0.92370    0.32100    1.000
    O170     O        0.97930    0.91890    0.99860    1.000
    H1078    H        0.97100    0.93800    0.98600    1.000
    H1079    H        0.00450    0.88720    0.04330    1.000
    H1080    H        0.98990    0.91930    0.01550    1.000
    C855     C        0.95940    0.88160    0.33770    1.000
    H1081    H        0.96270    0.86810    0.36180    1.000
    H1082    H        0.93610    0.89660    0.33860    1.000
    O171     O        0.96940    0.86800    0.00340    1.000
    H1083    H        0.98060    0.84620    0.00360    1.000
    C856     C        0.42490    0.48090    0.78230    1.000
    C857     C        0.39390    0.44960    0.72090    1.000
    C858     C        0.45320    0.39360    0.59700    1.000
    H1084    H        0.47340    0.37740    0.60330    1.000
    C859     C        0.45170    0.40860    0.55950    1.000
    C860     C        0.42260    0.43270    0.55110    1.000
    H1085    H        0.42060    0.44320    0.52670    1.000
    C861     C        0.39590    0.44170    0.57880    1.000
    H1086    H        0.37630    0.45890    0.57360    1.000
    C862     C        0.39880    0.42460    0.61470    1.000
    H1087    H        0.38000    0.42970    0.63290    1.000
    C863     C        0.44820    0.37070    0.77060    1.000
    H1088    H        0.44570    0.39720    0.76870    1.000
    C864     C        0.45950    0.35450    0.80440    1.000
    C865     C        0.46150    0.31580    0.80770    1.000
    H1089    H        0.46880    0.30480    0.83090    1.000
    C866     C        0.45330    0.29400    0.77880    1.000
    H1090    H        0.45500    0.26750    0.78100    1.000
    C867     C        0.44200    0.31090    0.74430    1.000
    H1091    H        0.43540    0.29510    0.72390    1.000
    C868     C        0.48210    0.39670    0.52980    1.000
    H1092    H        0.47990    0.36940    0.52510    1.000
    H1093    H        0.50750    0.40160    0.53990    1.000
    C869     C        0.47890    0.36920    0.84120    1.000
    H1094    H        0.49960    0.35240    0.84920    1.000
    H1095    H        0.46070    0.37180    0.86200    1.000
    N229     N        0.45090    0.47030    0.79940    1.000
    N230     N        0.40618    0.42340    0.70581    1.000
    N231     N        0.42760    0.40141    0.62380    1.000
    N232     N        0.44050    0.34830    0.73960    1.000
    O172     O        0.49310    0.40570    0.82870    1.000
    H1096    H        0.50600    0.42370    0.82100    1.000
    O173     O        0.47930    0.41890    0.49860    1.000
    H1097    H        0.47100    0.43800    0.48600    1.000
    H1098    H        0.50450    0.38720    0.54330    1.000
    H1099    H        0.48990    0.41930    0.51550    1.000
    C870     C        0.45940    0.38160    0.83770    1.000
    H1100    H        0.46270    0.36810    0.86180    1.000
    H1101    H        0.43610    0.39660    0.83860    1.000
    O174     O        0.46940    0.36800    0.50340    1.000
    H1102    H        0.48060    0.34620    0.50360    1.000
    C871     C        0.42490    0.51910    0.71770    1.000
    C872     C        0.39390    0.55040    0.77910    1.000
    C873     C        0.45320    0.60640    0.90300    1.000
    H1103    H        0.47340    0.62260    0.89670    1.000
    C874     C        0.45170    0.59140    0.94050    1.000
    C875     C        0.42260    0.56730    0.94890    1.000
    H1104    H        0.42060    0.55680    0.97330    1.000
    C876     C        0.39590    0.55830    0.92120    1.000
    H1105    H        0.37630    0.54110    0.92640    1.000
    C877     C        0.39880    0.57540    0.88530    1.000
    H1106    H        0.38000    0.57030    0.86710    1.000
    C878     C        0.44820    0.62930    0.72940    1.000
    H1107    H        0.44570    0.60280    0.73130    1.000
    C879     C        0.45950    0.64550    0.69560    1.000
    C880     C        0.46150    0.68420    0.69230    1.000
    H1108    H        0.46880    0.69520    0.66910    1.000
    C881     C        0.45330    0.70600    0.72120    1.000
    H1109    H        0.45500    0.73250    0.71900    1.000
    C882     C        0.44200    0.68910    0.75570    1.000
    H1110    H        0.43540    0.70490    0.77610    1.000
    C883     C        0.48210    0.60330    0.97020    1.000
    H1111    H        0.47990    0.63060    0.97490    1.000
    H1112    H        0.50750    0.59840    0.96010    1.000
    C884     C        0.47890    0.63080    0.65880    1.000
    H1113    H        0.49960    0.64760    0.65080    1.000
    H1114    H        0.46070    0.62820    0.63800    1.000
    N233     N        0.45090    0.52970    0.70060    1.000
    N234     N        0.40618    0.57660    0.79419    1.000
    N235     N        0.42760    0.59859    0.87620    1.000
    N236     N        0.44050    0.65170    0.76040    1.000
    O175     O        0.49310    0.59430    0.67130    1.000
    H1115    H        0.50600    0.57630    0.67900    1.000
    O176     O        0.47930    0.58110    0.00140    1.000
    H1116    H        0.47100    0.56200    0.01400    1.000
    H1117    H        0.50450    0.61280    0.95670    1.000
    H1118    H        0.48990    0.58070    0.98450    1.000
    C885     C        0.45940    0.61840    0.66230    1.000
    H1119    H        0.46270    0.63190    0.63820    1.000
    H1120    H        0.43610    0.60340    0.66140    1.000
    O177     O        0.46940    0.63200    0.99660    1.000
    H1121    H        0.48060    0.65380    0.99640    1.000
    C886     C        0.92490    0.01910    0.21770    1.000
    C887     C        0.89390    0.05040    0.27910    1.000
    C888     C        0.95320    0.10640    0.40300    1.000
    H1122    H        0.97340    0.12260    0.39670    1.000
    C889     C        0.95170    0.09140    0.44050    1.000
    C890     C        0.92260    0.06730    0.44890    1.000
    H1123    H        0.92060    0.05680    0.47330    1.000
    C891     C        0.89590    0.05830    0.42120    1.000
    H1124    H        0.87630    0.04110    0.42640    1.000
    C892     C        0.89880    0.07540    0.38530    1.000
    H1125    H        0.88000    0.07030    0.36710    1.000
    C893     C        0.94820    0.12930    0.22940    1.000
    H1126    H        0.94570    0.10280    0.23130    1.000
    C894     C        0.95950    0.14550    0.19560    1.000
    C895     C        0.96150    0.18420    0.19230    1.000
    H1127    H        0.96880    0.19520    0.16910    1.000
    C896     C        0.95330    0.20600    0.22120    1.000
    H1128    H        0.95500    0.23250    0.21900    1.000
    C897     C        0.94200    0.18910    0.25570    1.000
    H1129    H        0.93540    0.20490    0.27610    1.000
    C898     C        0.98210    0.10330    0.47020    1.000
    H1130    H        0.97990    0.13060    0.47490    1.000
    H1131    H        0.00750    0.09840    0.46010    1.000
    C899     C        0.97890    0.13080    0.15880    1.000
    H1132    H        0.99960    0.14760    0.15080    1.000
    H1133    H        0.96070    0.12820    0.13800    1.000
    N237     N        0.95090    0.02970    0.20060    1.000
    N238     N        0.90618    0.07660    0.29419    1.000
    N239     N        0.92760    0.09859    0.37620    1.000
    N240     N        0.94050    0.15170    0.26040    1.000
    O178     O        0.99310    0.09430    0.17130    1.000
    H1134    H        0.00600    0.07630    0.17900    1.000
    O179     O        0.97930    0.08110    0.50140    1.000
    H1135    H        0.97100    0.06200    0.51400    1.000
    H1136    H        0.00450    0.11280    0.45670    1.000
    H1137    H        0.98990    0.08070    0.48450    1.000
    C900     C        0.95940    0.11840    0.16230    1.000
    H1138    H        0.96270    0.13190    0.13820    1.000
    H1139    H        0.93610    0.10340    0.16140    1.000
    O180     O        0.96940    0.13200    0.49660    1.000
    H1140    H        0.98060    0.15380    0.49640    1.000
    C901     C        0.57510    0.01910    0.78230    1.000
    C902     C        0.60610    0.05040    0.72090    1.000
    C903     C        0.54680    0.10640    0.59700    1.000
    H1141    H        0.52660    0.12260    0.60330    1.000
    C904     C        0.54830    0.09140    0.55950    1.000
    C905     C        0.57740    0.06730    0.55110    1.000
    H1142    H        0.57940    0.05680    0.52670    1.000
    C906     C        0.60410    0.05830    0.57880    1.000
    H1143    H        0.62370    0.04110    0.57360    1.000
    C907     C        0.60120    0.07540    0.61470    1.000
    H1144    H        0.62000    0.07030    0.63290    1.000
    C908     C        0.55180    0.12930    0.77060    1.000
    H1145    H        0.55430    0.10280    0.76870    1.000
    C909     C        0.54050    0.14550    0.80440    1.000
    C910     C        0.53850    0.18420    0.80770    1.000
    H1146    H        0.53120    0.19520    0.83090    1.000
    C911     C        0.54670    0.20600    0.77880    1.000
    H1147    H        0.54500    0.23250    0.78100    1.000
    C912     C        0.55800    0.18910    0.74430    1.000
    H1148    H        0.56460    0.20490    0.72390    1.000
    C913     C        0.51790    0.10330    0.52980    1.000
    H1149    H        0.52010    0.13060    0.52510    1.000
    H1150    H        0.49250    0.09840    0.53990    1.000
    C914     C        0.52110    0.13080    0.84120    1.000
    H1151    H        0.50040    0.14760    0.84920    1.000
    H1152    H        0.53930    0.12820    0.86200    1.000
    N241     N        0.54910    0.02970    0.79940    1.000
    N242     N        0.59382    0.07660    0.70581    1.000
    N243     N        0.57240    0.09859    0.62380    1.000
    N244     N        0.55950    0.15170    0.73960    1.000
    O181     O        0.50690    0.09430    0.82870    1.000
    H1153    H        0.49400    0.07630    0.82100    1.000
    O182     O        0.52070    0.08110    0.49860    1.000
    H1154    H        0.52900    0.06200    0.48600    1.000
    H1155    H        0.49550    0.11280    0.54330    1.000
    H1156    H        0.51010    0.08070    0.51550    1.000
    C915     C        0.54060    0.11840    0.83770    1.000
    H1157    H        0.53730    0.13190    0.86180    1.000
    H1158    H        0.56390    0.10340    0.83860    1.000
    O183     O        0.53060    0.13200    0.50340    1.000
    H1159    H        0.51940    0.15380    0.50360    1.000
    C916     C        0.07510    0.51910    0.28230    1.000
    C917     C        0.10610    0.55040    0.22090    1.000
    C918     C        0.04680    0.60640    0.09700    1.000
    H1160    H        0.02660    0.62260    0.10330    1.000
    C919     C        0.04830    0.59140    0.05950    1.000
    C920     C        0.07740    0.56730    0.05110    1.000
    H1161    H        0.07940    0.55680    0.02670    1.000
    C921     C        0.10410    0.55830    0.07880    1.000
    H1162    H        0.12370    0.54110    0.07360    1.000
    C922     C        0.10120    0.57540    0.11470    1.000
    H1163    H        0.12000    0.57030    0.13290    1.000
    C923     C        0.05180    0.62930    0.27060    1.000
    H1164    H        0.05430    0.60280    0.26870    1.000
    C924     C        0.04050    0.64550    0.30440    1.000
    C925     C        0.03850    0.68420    0.30770    1.000
    H1165    H        0.03120    0.69520    0.33090    1.000
    C926     C        0.04670    0.70600    0.27880    1.000
    H1166    H        0.04500    0.73250    0.28100    1.000
    C927     C        0.05800    0.68910    0.24430    1.000
    H1167    H        0.06460    0.70490    0.22390    1.000
    C928     C        0.01790    0.60330    0.02980    1.000
    H1168    H        0.02010    0.63060    0.02510    1.000
    H1169    H        0.99250    0.59840    0.03990    1.000
    C929     C        0.02110    0.63080    0.34120    1.000
    H1170    H        0.00040    0.64760    0.34920    1.000
    H1171    H        0.03930    0.62820    0.36200    1.000
    N245     N        0.04910    0.52970    0.29940    1.000
    N246     N        0.09382    0.57660    0.20581    1.000
    N247     N        0.07240    0.59859    0.12380    1.000
    N248     N        0.05950    0.65170    0.23960    1.000
    O184     O        0.00690    0.59430    0.32870    1.000
    H1172    H        0.99400    0.57630    0.32100    1.000
    O185     O        0.02070    0.58110    0.99860    1.000
    H1173    H        0.02900    0.56200    0.98600    1.000
    H1174    H        0.99550    0.61280    0.04330    1.000
    H1175    H        0.01010    0.58070    0.01550    1.000
    C930     C        0.04060    0.61840    0.33770    1.000
    H1176    H        0.03730    0.63190    0.36180    1.000
    H1177    H        0.06390    0.60340    0.33860    1.000
    O186     O        0.03060    0.63200    0.00340    1.000
    H1178    H        0.01940    0.65380    0.00360    1.000
    C931     C        0.07510    0.48090    0.21770    1.000
    C932     C        0.10610    0.44960    0.27910    1.000
    C933     C        0.04680    0.39360    0.40300    1.000
    H1179    H        0.02660    0.37740    0.39670    1.000
    C934     C        0.04830    0.40860    0.44050    1.000
    C935     C        0.07740    0.43270    0.44890    1.000
    H1180    H        0.07940    0.44320    0.47330    1.000
    C936     C        0.10410    0.44170    0.42120    1.000
    H1181    H        0.12370    0.45890    0.42640    1.000
    C937     C        0.10120    0.42460    0.38530    1.000
    H1182    H        0.12000    0.42970    0.36710    1.000
    C938     C        0.05180    0.37070    0.22940    1.000
    H1183    H        0.05430    0.39720    0.23130    1.000
    C939     C        0.04050    0.35450    0.19560    1.000
    C940     C        0.03850    0.31580    0.19230    1.000
    H1184    H        0.03120    0.30480    0.16910    1.000
    C941     C        0.04670    0.29400    0.22120    1.000
    H1185    H        0.04500    0.26750    0.21900    1.000
    C942     C        0.05800    0.31090    0.25570    1.000
    H1186    H        0.06460    0.29510    0.27610    1.000
    C943     C        0.01790    0.39670    0.47020    1.000
    H1187    H        0.02010    0.36940    0.47490    1.000
    H1188    H        0.99250    0.40160    0.46010    1.000
    C944     C        0.02110    0.36920    0.15880    1.000
    H1189    H        0.00040    0.35240    0.15080    1.000
    H1190    H        0.03930    0.37180    0.13800    1.000
    N249     N        0.04910    0.47030    0.20060    1.000
    N250     N        0.09382    0.42340    0.29419    1.000
    N251     N        0.07240    0.40141    0.37620    1.000
    N252     N        0.05950    0.34830    0.26040    1.000
    O187     O        0.00690    0.40570    0.17130    1.000
    H1191    H        0.99400    0.42370    0.17900    1.000
    O188     O        0.02070    0.41890    0.50140    1.000
    H1192    H        0.02900    0.43800    0.51400    1.000
    H1193    H        0.99550    0.38720    0.45670    1.000
    H1194    H        0.01010    0.41930    0.48450    1.000
    C945     C        0.04060    0.38160    0.16230    1.000
    H1195    H        0.03730    0.36810    0.13820    1.000
    H1196    H        0.06390    0.39660    0.16140    1.000
    O189     O        0.03060    0.36800    0.49660    1.000
    H1197    H        0.01940    0.34620    0.49640    1.000
    C946     C        0.57510    0.98090    0.71770    1.000
    C947     C        0.60610    0.94960    0.77910    1.000
    C948     C        0.54680    0.89360    0.90300    1.000
    H1198    H        0.52660    0.87740    0.89670    1.000
    C949     C        0.54830    0.90860    0.94050    1.000
    C950     C        0.57740    0.93270    0.94890    1.000
    H1199    H        0.57940    0.94320    0.97330    1.000
    C951     C        0.60410    0.94170    0.92120    1.000
    H1200    H        0.62370    0.95890    0.92640    1.000
    C952     C        0.60120    0.92460    0.88530    1.000
    H1201    H        0.62000    0.92970    0.86710    1.000
    C953     C        0.55180    0.87070    0.72940    1.000
    H1202    H        0.55430    0.89720    0.73130    1.000
    C954     C        0.54050    0.85450    0.69560    1.000
    C955     C        0.53850    0.81580    0.69230    1.000
    H1203    H        0.53120    0.80480    0.66910    1.000
    C956     C        0.54670    0.79400    0.72120    1.000
    H1204    H        0.54500    0.76750    0.71900    1.000
    C957     C        0.55800    0.81090    0.75570    1.000
    H1205    H        0.56460    0.79510    0.77610    1.000
    C958     C        0.51790    0.89670    0.97020    1.000
    H1206    H        0.52010    0.86940    0.97490    1.000
    H1207    H        0.49250    0.90160    0.96010    1.000
    C959     C        0.52110    0.86920    0.65880    1.000
    H1208    H        0.50040    0.85240    0.65080    1.000
    H1209    H        0.53930    0.87180    0.63800    1.000
    N253     N        0.54910    0.97030    0.70060    1.000
    N254     N        0.59382    0.92340    0.79419    1.000
    N255     N        0.57240    0.90141    0.87620    1.000
    N256     N        0.55950    0.84830    0.76040    1.000
    O190     O        0.50690    0.90570    0.67130    1.000
    H1210    H        0.49400    0.92370    0.67900    1.000
    O191     O        0.52070    0.91890    0.00140    1.000
    H1211    H        0.52900    0.93800    0.01400    1.000
    H1212    H        0.49550    0.88720    0.95670    1.000
    H1213    H        0.51010    0.91930    0.98450    1.000
    C960     C        0.54060    0.88160    0.66230    1.000
    H1214    H        0.53730    0.86810    0.63820    1.000
    H1215    H        0.56390    0.89660    0.66140    1.000
    O192     O        0.53060    0.86800    0.99660    1.000
    H1216    H        0.51940    0.84620    0.99640    1.000
    C961     C        0.28230    0.92490    0.98090    1.000
    C962     C        0.22090    0.89390    0.94960    1.000
    C963     C        0.09700    0.95320    0.89360    1.000
    H1217    H        0.10330    0.97340    0.87740    1.000
    C964     C        0.05950    0.95170    0.90860    1.000
    C965     C        0.05110    0.92260    0.93270    1.000
    H1218    H        0.02670    0.92060    0.94320    1.000
    C966     C        0.07880    0.89590    0.94170    1.000
    H1219    H        0.07360    0.87630    0.95890    1.000
    C967     C        0.11470    0.89880    0.92460    1.000
    H1220    H        0.13290    0.88000    0.92970    1.000
    C968     C        0.27060    0.94820    0.87070    1.000
    H1221    H        0.26870    0.94570    0.89720    1.000
    C969     C        0.30440    0.95950    0.85450    1.000
    C970     C        0.30770    0.96150    0.81580    1.000
    H1222    H        0.33090    0.96880    0.80480    1.000
    C971     C        0.27880    0.95330    0.79400    1.000
    H1223    H        0.28100    0.95500    0.76750    1.000
    C972     C        0.24430    0.94200    0.81090    1.000
    H1224    H        0.22390    0.93540    0.79510    1.000
    C973     C        0.02980    0.98210    0.89670    1.000
    H1225    H        0.02510    0.97990    0.86940    1.000
    H1226    H        0.03990    0.00750    0.90160    1.000
    C974     C        0.34120    0.97890    0.86920    1.000
    H1227    H        0.34920    0.99960    0.85240    1.000
    H1228    H        0.36200    0.96070    0.87180    1.000
    N257     N        0.29940    0.95090    0.97030    1.000
    N258     N        0.20581    0.90618    0.92340    1.000
    N259     N        0.12380    0.92760    0.90141    1.000
    N260     N        0.23960    0.94050    0.84830    1.000
    O193     O        0.32870    0.99310    0.90570    1.000
    H1229    H        0.32100    0.00600    0.92370    1.000
    O194     O        0.99860    0.97930    0.91890    1.000
    H1230    H        0.98600    0.97100    0.93800    1.000
    H1231    H        0.04330    0.00450    0.88720    1.000
    H1232    H        0.01550    0.98990    0.91930    1.000
    C975     C        0.33770    0.95940    0.88160    1.000
    H1233    H        0.36180    0.96270    0.86810    1.000
    H1234    H        0.33860    0.93610    0.89660    1.000
    O195     O        0.00340    0.96940    0.86800    1.000
    H1235    H        0.00360    0.98060    0.84620    1.000
    C976     C        0.78230    0.42490    0.48090    1.000
    C977     C        0.72090    0.39390    0.44960    1.000
    C978     C        0.59700    0.45320    0.39360    1.000
    H1236    H        0.60330    0.47340    0.37740    1.000
    C979     C        0.55950    0.45170    0.40860    1.000
    C980     C        0.55110    0.42260    0.43270    1.000
    H1237    H        0.52670    0.42060    0.44320    1.000
    C981     C        0.57880    0.39590    0.44170    1.000
    H1238    H        0.57360    0.37630    0.45890    1.000
    C982     C        0.61470    0.39880    0.42460    1.000
    H1239    H        0.63290    0.38000    0.42970    1.000
    C983     C        0.77060    0.44820    0.37070    1.000
    H1240    H        0.76870    0.44570    0.39720    1.000
    C984     C        0.80440    0.45950    0.35450    1.000
    C985     C        0.80770    0.46150    0.31580    1.000
    H1241    H        0.83090    0.46880    0.30480    1.000
    C986     C        0.77880    0.45330    0.29400    1.000
    H1242    H        0.78100    0.45500    0.26750    1.000
    C987     C        0.74430    0.44200    0.31090    1.000
    H1243    H        0.72390    0.43540    0.29510    1.000
    C988     C        0.52980    0.48210    0.39670    1.000
    H1244    H        0.52510    0.47990    0.36940    1.000
    H1245    H        0.53990    0.50750    0.40160    1.000
    C989     C        0.84120    0.47890    0.36920    1.000
    H1246    H        0.84920    0.49960    0.35240    1.000
    H1247    H        0.86200    0.46070    0.37180    1.000
    N261     N        0.79940    0.45090    0.47030    1.000
    N262     N        0.70581    0.40618    0.42340    1.000
    N263     N        0.62380    0.42760    0.40141    1.000
    N264     N        0.73960    0.44050    0.34830    1.000
    O196     O        0.82870    0.49310    0.40570    1.000
    H1248    H        0.82100    0.50600    0.42370    1.000
    O197     O        0.49860    0.47930    0.41890    1.000
    H1249    H        0.48600    0.47100    0.43800    1.000
    H1250    H        0.54330    0.50450    0.38720    1.000
    H1251    H        0.51550    0.48990    0.41930    1.000
    C990     C        0.83770    0.45940    0.38160    1.000
    H1252    H        0.86180    0.46270    0.36810    1.000
    H1253    H        0.83860    0.43610    0.39660    1.000
    O198     O        0.50340    0.46940    0.36800    1.000
    H1254    H        0.50360    0.48060    0.34620    1.000
    C991     C        0.71770    0.42490    0.51910    1.000
    C992     C        0.77910    0.39390    0.55040    1.000
    C993     C        0.90300    0.45320    0.60640    1.000
    H1255    H        0.89670    0.47340    0.62260    1.000
    C994     C        0.94050    0.45170    0.59140    1.000
    C995     C        0.94890    0.42260    0.56730    1.000
    H1256    H        0.97330    0.42060    0.55680    1.000
    C996     C        0.92120    0.39590    0.55830    1.000
    H1257    H        0.92640    0.37630    0.54110    1.000
    C997     C        0.88530    0.39880    0.57540    1.000
    H1258    H        0.86710    0.38000    0.57030    1.000
    C998     C        0.72940    0.44820    0.62930    1.000
    H1259    H        0.73130    0.44570    0.60280    1.000
    C999     C        0.69560    0.45950    0.64550    1.000
    C1000    C        0.69230    0.46150    0.68420    1.000
    H1260    H        0.66910    0.46880    0.69520    1.000
    C1001    C        0.72120    0.45330    0.70600    1.000
    H1261    H        0.71900    0.45500    0.73250    1.000
    C1002    C        0.75570    0.44200    0.68910    1.000
    H1262    H        0.77610    0.43540    0.70490    1.000
    C1003    C        0.97020    0.48210    0.60330    1.000
    H1263    H        0.97490    0.47990    0.63060    1.000
    H1264    H        0.96010    0.50750    0.59840    1.000
    C1004    C        0.65880    0.47890    0.63080    1.000
    H1265    H        0.65080    0.49960    0.64760    1.000
    H1266    H        0.63800    0.46070    0.62820    1.000
    N265     N        0.70060    0.45090    0.52970    1.000
    N266     N        0.79419    0.40618    0.57660    1.000
    N267     N        0.87620    0.42760    0.59859    1.000
    N268     N        0.76040    0.44050    0.65170    1.000
    O199     O        0.67130    0.49310    0.59430    1.000
    H1267    H        0.67900    0.50600    0.57630    1.000
    O200     O        0.00140    0.47930    0.58110    1.000
    H1268    H        0.01400    0.47100    0.56200    1.000
    H1269    H        0.95670    0.50450    0.61280    1.000
    H1270    H        0.98450    0.48990    0.58070    1.000
    C1005    C        0.66230    0.45940    0.61840    1.000
    H1271    H        0.63820    0.46270    0.63190    1.000
    H1272    H        0.66140    0.43610    0.60340    1.000
    O201     O        0.99660    0.46940    0.63200    1.000
    H1273    H        0.99640    0.48060    0.65380    1.000
    C1006    C        0.21770    0.92490    0.01910    1.000
    C1007    C        0.27910    0.89390    0.05040    1.000
    C1008    C        0.40300    0.95320    0.10640    1.000
    H1274    H        0.39670    0.97340    0.12260    1.000
    C1009    C        0.44050    0.95170    0.09140    1.000
    C1010    C        0.44890    0.92260    0.06730    1.000
    H1275    H        0.47330    0.92060    0.05680    1.000
    C1011    C        0.42120    0.89590    0.05830    1.000
    H1276    H        0.42640    0.87630    0.04110    1.000
    C1012    C        0.38530    0.89880    0.07540    1.000
    H1277    H        0.36710    0.88000    0.07030    1.000
    C1013    C        0.22940    0.94820    0.12930    1.000
    H1278    H        0.23130    0.94570    0.10280    1.000
    C1014    C        0.19560    0.95950    0.14550    1.000
    C1015    C        0.19230    0.96150    0.18420    1.000
    H1279    H        0.16910    0.96880    0.19520    1.000
    C1016    C        0.22120    0.95330    0.20600    1.000
    H1280    H        0.21900    0.95500    0.23250    1.000
    C1017    C        0.25570    0.94200    0.18910    1.000
    H1281    H        0.27610    0.93540    0.20490    1.000
    C1018    C        0.47020    0.98210    0.10330    1.000
    H1282    H        0.47490    0.97990    0.13060    1.000
    H1283    H        0.46010    0.00750    0.09840    1.000
    C1019    C        0.15880    0.97890    0.13080    1.000
    H1284    H        0.15080    0.99960    0.14760    1.000
    H1285    H        0.13800    0.96070    0.12820    1.000
    N269     N        0.20060    0.95090    0.02970    1.000
    N270     N        0.29419    0.90618    0.07660    1.000
    N271     N        0.37620    0.92760    0.09859    1.000
    N272     N        0.26040    0.94050    0.15170    1.000
    O202     O        0.17130    0.99310    0.09430    1.000
    H1286    H        0.17900    0.00600    0.07630    1.000
    O203     O        0.50140    0.97930    0.08110    1.000
    H1287    H        0.51400    0.97100    0.06200    1.000
    H1288    H        0.45670    0.00450    0.11280    1.000
    H1289    H        0.48450    0.98990    0.08070    1.000
    C1020    C        0.16230    0.95940    0.11840    1.000
    H1290    H        0.13820    0.96270    0.13190    1.000
    H1291    H        0.16140    0.93610    0.10340    1.000
    O204     O        0.49660    0.96940    0.13200    1.000
    H1292    H        0.49640    0.98060    0.15380    1.000
    C1021    C        0.78230    0.57510    0.01910    1.000
    C1022    C        0.72090    0.60610    0.05040    1.000
    C1023    C        0.59700    0.54680    0.10640    1.000
    H1293    H        0.60330    0.52660    0.12260    1.000
    C1024    C        0.55950    0.54830    0.09140    1.000
    C1025    C        0.55110    0.57740    0.06730    1.000
    H1294    H        0.52670    0.57940    0.05680    1.000
    C1026    C        0.57880    0.60410    0.05830    1.000
    H1295    H        0.57360    0.62370    0.04110    1.000
    C1027    C        0.61470    0.60120    0.07540    1.000
    H1296    H        0.63290    0.62000    0.07030    1.000
    C1028    C        0.77060    0.55180    0.12930    1.000
    H1297    H        0.76870    0.55430    0.10280    1.000
    C1029    C        0.80440    0.54050    0.14550    1.000
    C1030    C        0.80770    0.53850    0.18420    1.000
    H1298    H        0.83090    0.53120    0.19520    1.000
    C1031    C        0.77880    0.54670    0.20600    1.000
    H1299    H        0.78100    0.54500    0.23250    1.000
    C1032    C        0.74430    0.55800    0.18910    1.000
    H1300    H        0.72390    0.56460    0.20490    1.000
    C1033    C        0.52980    0.51790    0.10330    1.000
    H1301    H        0.52510    0.52010    0.13060    1.000
    H1302    H        0.53990    0.49250    0.09840    1.000
    C1034    C        0.84120    0.52110    0.13080    1.000
    H1303    H        0.84920    0.50040    0.14760    1.000
    H1304    H        0.86200    0.53930    0.12820    1.000
    N273     N        0.79940    0.54910    0.02970    1.000
    N274     N        0.70581    0.59382    0.07660    1.000
    N275     N        0.62380    0.57240    0.09859    1.000
    N276     N        0.73960    0.55950    0.15170    1.000
    O205     O        0.82870    0.50690    0.09430    1.000
    H1305    H        0.82100    0.49400    0.07630    1.000
    O206     O        0.49860    0.52070    0.08110    1.000
    H1306    H        0.48600    0.52900    0.06200    1.000
    H1307    H        0.54330    0.49550    0.11280    1.000
    H1308    H        0.51550    0.51010    0.08070    1.000
    C1035    C        0.83770    0.54060    0.11840    1.000
    H1309    H        0.86180    0.53730    0.13190    1.000
    H1310    H        0.83860    0.56390    0.10340    1.000
    O207     O        0.50340    0.53060    0.13200    1.000
    H1311    H        0.50360    0.51940    0.15380    1.000
    C1036    C        0.28230    0.07510    0.51910    1.000
    C1037    C        0.22090    0.10610    0.55040    1.000
    C1038    C        0.09700    0.04680    0.60640    1.000
    H1312    H        0.10330    0.02660    0.62260    1.000
    C1039    C        0.05950    0.04830    0.59140    1.000
    C1040    C        0.05110    0.07740    0.56730    1.000
    H1313    H        0.02670    0.07940    0.55680    1.000
    C1041    C        0.07880    0.10410    0.55830    1.000
    H1314    H        0.07360    0.12370    0.54110    1.000
    C1042    C        0.11470    0.10120    0.57540    1.000
    H1315    H        0.13290    0.12000    0.57030    1.000
    C1043    C        0.27060    0.05180    0.62930    1.000
    H1316    H        0.26870    0.05430    0.60280    1.000
    C1044    C        0.30440    0.04050    0.64550    1.000
    C1045    C        0.30770    0.03850    0.68420    1.000
    H1317    H        0.33090    0.03120    0.69520    1.000
    C1046    C        0.27880    0.04670    0.70600    1.000
    H1318    H        0.28100    0.04500    0.73250    1.000
    C1047    C        0.24430    0.05800    0.68910    1.000
    H1319    H        0.22390    0.06460    0.70490    1.000
    C1048    C        0.02980    0.01790    0.60330    1.000
    H1320    H        0.02510    0.02010    0.63060    1.000
    H1321    H        0.03990    0.99250    0.59840    1.000
    C1049    C        0.34120    0.02110    0.63080    1.000
    H1322    H        0.34920    0.00040    0.64760    1.000
    H1323    H        0.36200    0.03930    0.62820    1.000
    N277     N        0.29940    0.04910    0.52970    1.000
    N278     N        0.20581    0.09382    0.57660    1.000
    N279     N        0.12380    0.07240    0.59859    1.000
    N280     N        0.23960    0.05950    0.65170    1.000
    O208     O        0.32870    0.00690    0.59430    1.000
    H1324    H        0.32100    0.99400    0.57630    1.000
    O209     O        0.99860    0.02070    0.58110    1.000
    H1325    H        0.98600    0.02900    0.56200    1.000
    H1326    H        0.04330    0.99550    0.61280    1.000
    H1327    H        0.01550    0.01010    0.58070    1.000
    C1050    C        0.33770    0.04060    0.61840    1.000
    H1328    H        0.36180    0.03730    0.63190    1.000
    H1329    H        0.33860    0.06390    0.60340    1.000
    O210     O        0.00340    0.03060    0.63200    1.000
    H1330    H        0.00360    0.01940    0.65380    1.000
    C1051    C        0.21770    0.07510    0.48090    1.000
    C1052    C        0.27910    0.10610    0.44960    1.000
    C1053    C        0.40300    0.04680    0.39360    1.000
    H1331    H        0.39670    0.02660    0.37740    1.000
    C1054    C        0.44050    0.04830    0.40860    1.000
    C1055    C        0.44890    0.07740    0.43270    1.000
    H1332    H        0.47330    0.07940    0.44320    1.000
    C1056    C        0.42120    0.10410    0.44170    1.000
    H1333    H        0.42640    0.12370    0.45890    1.000
    C1057    C        0.38530    0.10120    0.42460    1.000
    H1334    H        0.36710    0.12000    0.42970    1.000
    C1058    C        0.22940    0.05180    0.37070    1.000
    H1335    H        0.23130    0.05430    0.39720    1.000
    C1059    C        0.19560    0.04050    0.35450    1.000
    C1060    C        0.19230    0.03850    0.31580    1.000
    H1336    H        0.16910    0.03120    0.30480    1.000
    C1061    C        0.22120    0.04670    0.29400    1.000
    H1337    H        0.21900    0.04500    0.26750    1.000
    C1062    C        0.25570    0.05800    0.31090    1.000
    H1338    H        0.27610    0.06460    0.29510    1.000
    C1063    C        0.47020    0.01790    0.39670    1.000
    H1339    H        0.47490    0.02010    0.36940    1.000
    H1340    H        0.46010    0.99250    0.40160    1.000
    C1064    C        0.15880    0.02110    0.36920    1.000
    H1341    H        0.15080    0.00040    0.35240    1.000
    H1342    H        0.13800    0.03930    0.37180    1.000
    N281     N        0.20060    0.04910    0.47030    1.000
    N282     N        0.29419    0.09382    0.42340    1.000
    N283     N        0.37620    0.07240    0.40141    1.000
    N284     N        0.26040    0.05950    0.34830    1.000
    O211     O        0.17130    0.00690    0.40570    1.000
    H1343    H        0.17900    0.99400    0.42370    1.000
    O212     O        0.50140    0.02070    0.41890    1.000
    H1344    H        0.51400    0.02900    0.43800    1.000
    H1345    H        0.45670    0.99550    0.38720    1.000
    H1346    H        0.48450    0.01010    0.41930    1.000
    C1065    C        0.16230    0.04060    0.38160    1.000
    H1347    H        0.13820    0.03730    0.36810    1.000
    H1348    H        0.16140    0.06390    0.39660    1.000
    O213     O        0.49660    0.03060    0.36800    1.000
    H1349    H        0.49640    0.01940    0.34620    1.000
    C1066    C        0.71770    0.57510    0.98090    1.000
    C1067    C        0.77910    0.60610    0.94960    1.000
    C1068    C        0.90300    0.54680    0.89360    1.000
    H1350    H        0.89670    0.52660    0.87740    1.000
    C1069    C        0.94050    0.54830    0.90860    1.000
    C1070    C        0.94890    0.57740    0.93270    1.000
    H1351    H        0.97330    0.57940    0.94320    1.000
    C1071    C        0.92120    0.60410    0.94170    1.000
    H1352    H        0.92640    0.62370    0.95890    1.000
    C1072    C        0.88530    0.60120    0.92460    1.000
    H1353    H        0.86710    0.62000    0.92970    1.000
    C1073    C        0.72940    0.55180    0.87070    1.000
    H1354    H        0.73130    0.55430    0.89720    1.000
    C1074    C        0.69560    0.54050    0.85450    1.000
    C1075    C        0.69230    0.53850    0.81580    1.000
    H1355    H        0.66910    0.53120    0.80480    1.000
    C1076    C        0.72120    0.54670    0.79400    1.000
    H1356    H        0.71900    0.54500    0.76750    1.000
    C1077    C        0.75570    0.55800    0.81090    1.000
    H1357    H        0.77610    0.56460    0.79510    1.000
    C1078    C        0.97020    0.51790    0.89670    1.000
    H1358    H        0.97490    0.52010    0.86940    1.000
    H1359    H        0.96010    0.49250    0.90160    1.000
    C1079    C        0.65880    0.52110    0.86920    1.000
    H1360    H        0.65080    0.50040    0.85240    1.000
    H1361    H        0.63800    0.53930    0.87180    1.000
    N285     N        0.70060    0.54910    0.97030    1.000
    N286     N        0.79419    0.59382    0.92340    1.000
    N287     N        0.87620    0.57240    0.90141    1.000
    N288     N        0.76040    0.55950    0.84830    1.000
    O214     O        0.67130    0.50690    0.90570    1.000
    H1362    H        0.67900    0.49400    0.92370    1.000
    O215     O        0.00140    0.52070    0.91890    1.000
    H1363    H        0.01400    0.52900    0.93800    1.000
    H1364    H        0.95670    0.49550    0.88720    1.000
    H1365    H        0.98450    0.51010    0.91930    1.000
    C1080    C        0.66230    0.54060    0.88160    1.000
    H1366    H        0.63820    0.53730    0.86810    1.000
    H1367    H        0.66140    0.56390    0.89660    1.000
    O216     O        0.99660    0.53060    0.86800    1.000
    H1368    H        0.99640    0.51940    0.84620    1.000
    C1081    C        0.53230    0.73090    0.82510    1.000
    C1082    C        0.47090    0.69960    0.85610    1.000
    C1083    C        0.34700    0.64360    0.79680    1.000
    H1369    H        0.35330    0.62740    0.77660    1.000
    C1084    C        0.30950    0.65860    0.79830    1.000
    C1085    C        0.30110    0.68270    0.82740    1.000
    H1370    H        0.27670    0.69320    0.82940    1.000
    C1086    C        0.32880    0.69170    0.85410    1.000
    H1371    H        0.32360    0.70890    0.87370    1.000
    C1087    C        0.36470    0.67460    0.85120    1.000
    H1372    H        0.38290    0.67970    0.87000    1.000
    C1088    C        0.52060    0.62070    0.80180    1.000
    H1373    H        0.51870    0.64720    0.80430    1.000
    C1089    C        0.55440    0.60450    0.79050    1.000
    C1090    C        0.55770    0.56580    0.78850    1.000
    H1374    H        0.58090    0.55480    0.78120    1.000
    C1091    C        0.52880    0.54400    0.79670    1.000
    H1375    H        0.53100    0.51750    0.79500    1.000
    C1092    C        0.49430    0.56090    0.80800    1.000
    H1376    H        0.47390    0.54510    0.81460    1.000
    C1093    C        0.27980    0.64670    0.76790    1.000
    H1377    H        0.27510    0.61940    0.77010    1.000
    H1378    H        0.28990    0.65160    0.74250    1.000
    C1094    C        0.59120    0.61920    0.77110    1.000
    H1379    H        0.59920    0.60240    0.75040    1.000
    H1380    H        0.61200    0.62180    0.78930    1.000
    N289     N        0.54940    0.72030    0.79910    1.000
    N290     N        0.45581    0.67340    0.84382    1.000
    N291     N        0.37380    0.65141    0.82240    1.000
    N292     N        0.48960    0.59830    0.80950    1.000
    O217     O        0.57870    0.65570    0.75690    1.000
    H1381    H        0.57100    0.67370    0.74400    1.000
    O218     O        0.24860    0.66890    0.77070    1.000
    H1382    H        0.23600    0.68800    0.77900    1.000
    H1383    H        0.29330    0.63720    0.74550    1.000
    H1384    H        0.26550    0.66930    0.76010    1.000
    C1095    C        0.58770    0.63160    0.79060    1.000
    H1385    H        0.61180    0.61810    0.78730    1.000
    H1386    H        0.58860    0.64660    0.81390    1.000
    O219     O        0.25340    0.61800    0.78060    1.000
    H1387    H        0.25360    0.59620    0.76940    1.000
    C1096    C        0.03230    0.23090    0.32510    1.000
    C1097    C        0.97090    0.19960    0.35610    1.000
    C1098    C        0.84700    0.14360    0.29680    1.000
    H1388    H        0.85330    0.12740    0.27660    1.000
    C1099    C        0.80950    0.15860    0.29830    1.000
    C1100    C        0.80110    0.18270    0.32740    1.000
    H1389    H        0.77670    0.19320    0.32940    1.000
    C1101    C        0.82880    0.19170    0.35410    1.000
    H1390    H        0.82360    0.20890    0.37370    1.000
    C1102    C        0.86470    0.17460    0.35120    1.000
    H1391    H        0.88290    0.17970    0.37000    1.000
    C1103    C        0.02060    0.12070    0.30180    1.000
    H1392    H        0.01870    0.14720    0.30430    1.000
    C1104    C        0.05440    0.10450    0.29050    1.000
    C1105    C        0.05770    0.06580    0.28850    1.000
    H1393    H        0.08090    0.05480    0.28120    1.000
    C1106    C        0.02880    0.04400    0.29670    1.000
    H1394    H        0.03100    0.01750    0.29500    1.000
    C1107    C        0.99430    0.06090    0.30800    1.000
    H1395    H        0.97390    0.04510    0.31460    1.000
    C1108    C        0.77980    0.14670    0.26790    1.000
    H1396    H        0.77510    0.11940    0.27010    1.000
    H1397    H        0.78990    0.15160    0.24250    1.000
    C1109    C        0.09120    0.11920    0.27110    1.000
    H1398    H        0.09920    0.10240    0.25040    1.000
    H1399    H        0.11200    0.12180    0.28930    1.000
    N293     N        0.04940    0.22030    0.29910    1.000
    N294     N        0.95581    0.17340    0.34382    1.000
    N295     N        0.87380    0.15141    0.32240    1.000
    N296     N        0.98960    0.09830    0.30950    1.000
    O220     O        0.07870    0.15570    0.25690    1.000
    H1400    H        0.07100    0.17370    0.24400    1.000
    O221     O        0.74860    0.16890    0.27070    1.000
    H1401    H        0.73600    0.18800    0.27900    1.000
    H1402    H        0.79330    0.13720    0.24550    1.000
    H1403    H        0.76550    0.16930    0.26010    1.000
    C1110    C        0.08770    0.13160    0.29060    1.000
    H1404    H        0.11180    0.11810    0.28730    1.000
    H1405    H        0.08860    0.14660    0.31390    1.000
    O222     O        0.75340    0.11800    0.28060    1.000
    H1406    H        0.75360    0.09620    0.26940    1.000
    C1111    C        0.96770    0.26910    0.32510    1.000
    C1112    C        0.02910    0.30040    0.35610    1.000
    C1113    C        0.15300    0.35640    0.29680    1.000
    H1407    H        0.14670    0.37260    0.27660    1.000
    C1114    C        0.19050    0.34140    0.29830    1.000
    C1115    C        0.19890    0.31730    0.32740    1.000
    H1408    H        0.22330    0.30680    0.32940    1.000
    C1116    C        0.17120    0.30830    0.35410    1.000
    H1409    H        0.17640    0.29110    0.37370    1.000
    C1117    C        0.13530    0.32540    0.35120    1.000
    H1410    H        0.11710    0.32030    0.37000    1.000
    C1118    C        0.97940    0.37930    0.30180    1.000
    H1411    H        0.98130    0.35280    0.30430    1.000
    C1119    C        0.94560    0.39550    0.29050    1.000
    C1120    C        0.94230    0.43420    0.28850    1.000
    H1412    H        0.91910    0.44520    0.28120    1.000
    C1121    C        0.97120    0.45600    0.29670    1.000
    H1413    H        0.96900    0.48250    0.29500    1.000
    C1122    C        0.00570    0.43910    0.30800    1.000
    H1414    H        0.02610    0.45490    0.31460    1.000
    C1123    C        0.22020    0.35330    0.26790    1.000
    H1415    H        0.22490    0.38060    0.27010    1.000
    H1416    H        0.21010    0.34840    0.24250    1.000
    C1124    C        0.90880    0.38080    0.27110    1.000
    H1417    H        0.90080    0.39760    0.25040    1.000
    H1418    H        0.88800    0.37820    0.28930    1.000
    N297     N        0.95060    0.27970    0.29910    1.000
    N298     N        0.04419    0.32660    0.34382    1.000
    N299     N        0.12620    0.34859    0.32240    1.000
    N300     N        0.01040    0.40170    0.30950    1.000
    O223     O        0.92130    0.34430    0.25690    1.000
    H1419    H        0.92900    0.32630    0.24400    1.000
    O224     O        0.25140    0.33110    0.27070    1.000
    H1420    H        0.26400    0.31200    0.27900    1.000
    H1421    H        0.20670    0.36280    0.24550    1.000
    H1422    H        0.23450    0.33070    0.26010    1.000
    C1125    C        0.91230    0.36840    0.29060    1.000
    H1423    H        0.88820    0.38190    0.28730    1.000
    H1424    H        0.91140    0.35340    0.31390    1.000
    O225     O        0.24660    0.38200    0.28060    1.000
    H1425    H        0.24640    0.40380    0.26940    1.000
    C1126    C        0.46770    0.76910    0.82510    1.000
    C1127    C        0.52910    0.80040    0.85610    1.000
    C1128    C        0.65300    0.85640    0.79680    1.000
    H1426    H        0.64670    0.87260    0.77660    1.000
    C1129    C        0.69050    0.84140    0.79830    1.000
    C1130    C        0.69890    0.81730    0.82740    1.000
    H1427    H        0.72330    0.80680    0.82940    1.000
    C1131    C        0.67120    0.80830    0.85410    1.000
    H1428    H        0.67640    0.79110    0.87370    1.000
    C1132    C        0.63530    0.82540    0.85120    1.000
    H1429    H        0.61710    0.82030    0.87000    1.000
    C1133    C        0.47940    0.87930    0.80180    1.000
    H1430    H        0.48130    0.85280    0.80430    1.000
    C1134    C        0.44560    0.89550    0.79050    1.000
    C1135    C        0.44230    0.93420    0.78850    1.000
    H1431    H        0.41910    0.94520    0.78120    1.000
    C1136    C        0.47120    0.95600    0.79670    1.000
    H1432    H        0.46900    0.98250    0.79500    1.000
    C1137    C        0.50570    0.93910    0.80800    1.000
    H1433    H        0.52610    0.95490    0.81460    1.000
    C1138    C        0.72020    0.85330    0.76790    1.000
    H1434    H        0.72490    0.88060    0.77010    1.000
    H1435    H        0.71010    0.84840    0.74250    1.000
    C1139    C        0.40880    0.88080    0.77110    1.000
    H1436    H        0.40080    0.89760    0.75040    1.000
    H1437    H        0.38800    0.87820    0.78930    1.000
    N301     N        0.45060    0.77970    0.79910    1.000
    N302     N        0.54419    0.82660    0.84382    1.000
    N303     N        0.62620    0.84859    0.82240    1.000
    N304     N        0.51040    0.90170    0.80950    1.000
    O226     O        0.42130    0.84430    0.75690    1.000
    H1438    H        0.42900    0.82630    0.74400    1.000
    O227     O        0.75140    0.83110    0.77070    1.000
    H1439    H        0.76400    0.81200    0.77900    1.000
    H1440    H        0.70670    0.86280    0.74550    1.000
    H1441    H        0.73450    0.83070    0.76010    1.000
    C1140    C        0.41230    0.86840    0.79060    1.000
    H1442    H        0.38820    0.88190    0.78730    1.000
    H1443    H        0.41140    0.85340    0.81390    1.000
    O228     O        0.74660    0.88200    0.78060    1.000
    H1444    H        0.74640    0.90380    0.76940    1.000
    C1141    C        0.03230    0.76910    0.17490    1.000
    C1142    C        0.97090    0.80040    0.14390    1.000
    C1143    C        0.84700    0.85640    0.20320    1.000
    H1445    H        0.85330    0.87260    0.22340    1.000
    C1144    C        0.80950    0.84140    0.20170    1.000
    C1145    C        0.80110    0.81730    0.17260    1.000
    H1446    H        0.77670    0.80680    0.17060    1.000
    C1146    C        0.82880    0.80830    0.14590    1.000
    H1447    H        0.82360    0.79110    0.12630    1.000
    C1147    C        0.86470    0.82540    0.14880    1.000
    H1448    H        0.88290    0.82030    0.13000    1.000
    C1148    C        0.02060    0.87930    0.19820    1.000
    H1449    H        0.01870    0.85280    0.19570    1.000
    C1149    C        0.05440    0.89550    0.20950    1.000
    C1150    C        0.05770    0.93420    0.21150    1.000
    H1450    H        0.08090    0.94520    0.21880    1.000
    C1151    C        0.02880    0.95600    0.20330    1.000
    H1451    H        0.03100    0.98250    0.20500    1.000
    C1152    C        0.99430    0.93910    0.19200    1.000
    H1452    H        0.97390    0.95490    0.18540    1.000
    C1153    C        0.77980    0.85330    0.23210    1.000
    H1453    H        0.77510    0.88060    0.22990    1.000
    H1454    H        0.78990    0.84840    0.25750    1.000
    C1154    C        0.09120    0.88080    0.22890    1.000
    H1455    H        0.09920    0.89760    0.24960    1.000
    H1456    H        0.11200    0.87820    0.21070    1.000
    N305     N        0.04940    0.77970    0.20090    1.000
    N306     N        0.95581    0.82660    0.15618    1.000
    N307     N        0.87380    0.84859    0.17760    1.000
    N308     N        0.98960    0.90170    0.19050    1.000
    O229     O        0.07870    0.84430    0.24310    1.000
    H1457    H        0.07100    0.82630    0.25600    1.000
    O230     O        0.74860    0.83110    0.22930    1.000
    H1458    H        0.73600    0.81200    0.22100    1.000
    H1459    H        0.79330    0.86280    0.25450    1.000
    H1460    H        0.76550    0.83070    0.23990    1.000
    C1155    C        0.08770    0.86840    0.20940    1.000
    H1461    H        0.11180    0.88190    0.21270    1.000
    H1462    H        0.08860    0.85340    0.18610    1.000
    O231     O        0.75340    0.88200    0.21940    1.000
    H1463    H        0.75360    0.90380    0.23060    1.000
    C1156    C        0.53230    0.26910    0.67490    1.000
    C1157    C        0.47090    0.30040    0.64390    1.000
    C1158    C        0.34700    0.35640    0.70320    1.000
    H1464    H        0.35330    0.37260    0.72340    1.000
    C1159    C        0.30950    0.34140    0.70170    1.000
    C1160    C        0.30110    0.31730    0.67260    1.000
    H1465    H        0.27670    0.30680    0.67060    1.000
    C1161    C        0.32880    0.30830    0.64590    1.000
    H1466    H        0.32360    0.29110    0.62630    1.000
    C1162    C        0.36470    0.32540    0.64880    1.000
    H1467    H        0.38290    0.32030    0.63000    1.000
    C1163    C        0.52060    0.37930    0.69820    1.000
    H1468    H        0.51870    0.35280    0.69570    1.000
    C1164    C        0.55440    0.39550    0.70950    1.000
    C1165    C        0.55770    0.43420    0.71150    1.000
    H1469    H        0.58090    0.44520    0.71880    1.000
    C1166    C        0.52880    0.45600    0.70330    1.000
    H1470    H        0.53100    0.48250    0.70500    1.000
    C1167    C        0.49430    0.43910    0.69200    1.000
    H1471    H        0.47390    0.45490    0.68540    1.000
    C1168    C        0.27980    0.35330    0.73210    1.000
    H1472    H        0.27510    0.38060    0.72990    1.000
    H1473    H        0.28990    0.34840    0.75750    1.000
    C1169    C        0.59120    0.38080    0.72890    1.000
    H1474    H        0.59920    0.39760    0.74960    1.000
    H1475    H        0.61200    0.37820    0.71070    1.000
    N309     N        0.54940    0.27970    0.70090    1.000
    N310     N        0.45581    0.32660    0.65618    1.000
    N311     N        0.37380    0.34859    0.67760    1.000
    N312     N        0.48960    0.40170    0.69050    1.000
    O232     O        0.57870    0.34430    0.74310    1.000
    H1476    H        0.57100    0.32630    0.75600    1.000
    O233     O        0.24860    0.33110    0.72930    1.000
    H1477    H        0.23600    0.31200    0.72100    1.000
    H1478    H        0.29330    0.36280    0.75450    1.000
    H1479    H        0.26550    0.33070    0.73990    1.000
    C1170    C        0.58770    0.36840    0.70940    1.000
    H1480    H        0.61180    0.38190    0.71270    1.000
    H1481    H        0.58860    0.35340    0.68610    1.000
    O234     O        0.25340    0.38200    0.71940    1.000
    H1482    H        0.25360    0.40380    0.73060    1.000
    C1171    C        0.46770    0.23090    0.67490    1.000
    C1172    C        0.52910    0.19960    0.64390    1.000
    C1173    C        0.65300    0.14360    0.70320    1.000
    H1483    H        0.64670    0.12740    0.72340    1.000
    C1174    C        0.69050    0.15860    0.70170    1.000
    C1175    C        0.69890    0.18270    0.67260    1.000
    H1484    H        0.72330    0.19320    0.67060    1.000
    C1176    C        0.67120    0.19170    0.64590    1.000
    H1485    H        0.67640    0.20890    0.62630    1.000
    C1177    C        0.63530    0.17460    0.64880    1.000
    H1486    H        0.61710    0.17970    0.63000    1.000
    C1178    C        0.47940    0.12070    0.69820    1.000
    H1487    H        0.48130    0.14720    0.69570    1.000
    C1179    C        0.44560    0.10450    0.70950    1.000
    C1180    C        0.44230    0.06580    0.71150    1.000
    H1488    H        0.41910    0.05480    0.71880    1.000
    C1181    C        0.47120    0.04400    0.70330    1.000
    H1489    H        0.46900    0.01750    0.70500    1.000
    C1182    C        0.50570    0.06090    0.69200    1.000
    H1490    H        0.52610    0.04510    0.68540    1.000
    C1183    C        0.72020    0.14670    0.73210    1.000
    H1491    H        0.72490    0.11940    0.72990    1.000
    H1492    H        0.71010    0.15160    0.75750    1.000
    C1184    C        0.40880    0.11920    0.72890    1.000
    H1493    H        0.40080    0.10240    0.74960    1.000
    H1494    H        0.38800    0.12180    0.71070    1.000
    N313     N        0.45060    0.22030    0.70090    1.000
    N314     N        0.54419    0.17340    0.65618    1.000
    N315     N        0.62620    0.15141    0.67760    1.000
    N316     N        0.51040    0.09830    0.69050    1.000
    O235     O        0.42130    0.15570    0.74310    1.000
    H1495    H        0.42900    0.17370    0.75600    1.000
    O236     O        0.75140    0.16890    0.72930    1.000
    H1496    H        0.76400    0.18800    0.72100    1.000
    H1497    H        0.70670    0.13720    0.75450    1.000
    H1498    H        0.73450    0.16930    0.73990    1.000
    C1185    C        0.41230    0.13160    0.70940    1.000
    H1499    H        0.38820    0.11810    0.71270    1.000
    H1500    H        0.41140    0.14660    0.68610    1.000
    O237     O        0.74660    0.11800    0.71940    1.000
    H1501    H        0.74640    0.09620    0.73060    1.000
    C1186    C        0.96770    0.73090    0.17490    1.000
    C1187    C        0.02910    0.69960    0.14390    1.000
    C1188    C        0.15300    0.64360    0.20320    1.000
    H1502    H        0.14670    0.62740    0.22340    1.000
    C1189    C        0.19050    0.65860    0.20170    1.000
    C1190    C        0.19890    0.68270    0.17260    1.000
    H1503    H        0.22330    0.69320    0.17060    1.000
    C1191    C        0.17120    0.69170    0.14590    1.000
    H1504    H        0.17640    0.70890    0.12630    1.000
    C1192    C        0.13530    0.67460    0.14880    1.000
    H1505    H        0.11710    0.67970    0.13000    1.000
    C1193    C        0.97940    0.62070    0.19820    1.000
    H1506    H        0.98130    0.64720    0.19570    1.000
    C1194    C        0.94560    0.60450    0.20950    1.000
    C1195    C        0.94230    0.56580    0.21150    1.000
    H1507    H        0.91910    0.55480    0.21880    1.000
    C1196    C        0.97120    0.54400    0.20330    1.000
    H1508    H        0.96900    0.51750    0.20500    1.000
    C1197    C        0.00570    0.56090    0.19200    1.000
    H1509    H        0.02610    0.54510    0.18540    1.000
    C1198    C        0.22020    0.64670    0.23210    1.000
    H1510    H        0.22490    0.61940    0.22990    1.000
    H1511    H        0.21010    0.65160    0.25750    1.000
    C1199    C        0.90880    0.61920    0.22890    1.000
    H1512    H        0.90080    0.60240    0.24960    1.000
    H1513    H        0.88800    0.62180    0.21070    1.000
    N317     N        0.95060    0.72030    0.20090    1.000
    N318     N        0.04419    0.67340    0.15618    1.000
    N319     N        0.12620    0.65141    0.17760    1.000
    N320     N        0.01040    0.59830    0.19050    1.000
    O238     O        0.92130    0.65570    0.24310    1.000
    H1514    H        0.92900    0.67370    0.25600    1.000
    O239     O        0.25140    0.66890    0.22930    1.000
    H1515    H        0.26400    0.68800    0.22100    1.000
    H1516    H        0.20670    0.63720    0.25450    1.000
    H1517    H        0.23450    0.66930    0.23990    1.000
    C1200    C        0.91230    0.63160    0.20940    1.000
    H1518    H        0.88820    0.61810    0.21270    1.000
    H1519    H        0.91140    0.64660    0.18610    1.000
    O240     O        0.24660    0.61800    0.21940    1.000
    H1520    H        0.24640    0.59620    0.23060    1.000
    C1201    C        0.23090    0.67490    0.46770    1.000
    C1202    C        0.19960    0.64390    0.52910    1.000
    C1203    C        0.14360    0.70320    0.65300    1.000
    H1521    H        0.12740    0.72340    0.64670    1.000
    C1204    C        0.15860    0.70170    0.69050    1.000
    C1205    C        0.18270    0.67260    0.69890    1.000
    H1522    H        0.19320    0.67060    0.72330    1.000
    C1206    C        0.19170    0.64590    0.67120    1.000
    H1523    H        0.20890    0.62630    0.67640    1.000
    C1207    C        0.17460    0.64880    0.63530    1.000
    H1524    H        0.17970    0.63000    0.61710    1.000
    C1208    C        0.12070    0.69820    0.47940    1.000
    H1525    H        0.14720    0.69570    0.48130    1.000
    C1209    C        0.10450    0.70950    0.44560    1.000
    C1210    C        0.06580    0.71150    0.44230    1.000
    H1526    H        0.05480    0.71880    0.41910    1.000
    C1211    C        0.04400    0.70330    0.47120    1.000
    H1527    H        0.01750    0.70500    0.46900    1.000
    C1212    C        0.06090    0.69200    0.50570    1.000
    H1528    H        0.04510    0.68540    0.52610    1.000
    C1213    C        0.14670    0.73210    0.72020    1.000
    H1529    H        0.11940    0.72990    0.72490    1.000
    H1530    H        0.15160    0.75750    0.71010    1.000
    C1214    C        0.11920    0.72890    0.40880    1.000
    H1531    H        0.10240    0.74960    0.40080    1.000
    H1532    H        0.12180    0.71070    0.38800    1.000
    N321     N        0.22030    0.70090    0.45060    1.000
    N322     N        0.17340    0.65618    0.54419    1.000
    N323     N        0.15141    0.67760    0.62620    1.000
    N324     N        0.09830    0.69050    0.51040    1.000
    O241     O        0.15570    0.74310    0.42130    1.000
    H1533    H        0.17370    0.75600    0.42900    1.000
    O242     O        0.16890    0.72930    0.75140    1.000
    H1534    H        0.18800    0.72100    0.76400    1.000
    H1535    H        0.13720    0.75450    0.70670    1.000
    H1536    H        0.16930    0.73990    0.73450    1.000
    C1215    C        0.13160    0.70940    0.41230    1.000
    H1537    H        0.11810    0.71270    0.38820    1.000
    H1538    H        0.14660    0.68610    0.41140    1.000
    O243     O        0.11800    0.71940    0.74660    1.000
    H1539    H        0.09620    0.73060    0.74640    1.000
    C1216    C        0.73090    0.17490    0.96770    1.000
    C1217    C        0.69960    0.14390    0.02910    1.000
    C1218    C        0.64360    0.20320    0.15300    1.000
    H1540    H        0.62740    0.22340    0.14670    1.000
    C1219    C        0.65860    0.20170    0.19050    1.000
    C1220    C        0.68270    0.17260    0.19890    1.000
    H1541    H        0.69320    0.17060    0.22330    1.000
    C1221    C        0.69170    0.14590    0.17120    1.000
    H1542    H        0.70890    0.12630    0.17640    1.000
    C1222    C        0.67460    0.14880    0.13530    1.000
    H1543    H        0.67970    0.13000    0.11710    1.000
    C1223    C        0.62070    0.19820    0.97940    1.000
    H1544    H        0.64720    0.19570    0.98130    1.000
    C1224    C        0.60450    0.20950    0.94560    1.000
    C1225    C        0.56580    0.21150    0.94230    1.000
    H1545    H        0.55480    0.21880    0.91910    1.000
    C1226    C        0.54400    0.20330    0.97120    1.000
    H1546    H        0.51750    0.20500    0.96900    1.000
    C1227    C        0.56090    0.19200    0.00570    1.000
    H1547    H        0.54510    0.18540    0.02610    1.000
    C1228    C        0.64670    0.23210    0.22020    1.000
    H1548    H        0.61940    0.22990    0.22490    1.000
    H1549    H        0.65160    0.25750    0.21010    1.000
    C1229    C        0.61920    0.22890    0.90880    1.000
    H1550    H        0.60240    0.24960    0.90080    1.000
    H1551    H        0.62180    0.21070    0.88800    1.000
    N325     N        0.72030    0.20090    0.95060    1.000
    N326     N        0.67340    0.15618    0.04419    1.000
    N327     N        0.65141    0.17760    0.12620    1.000
    N328     N        0.59830    0.19050    0.01040    1.000
    O244     O        0.65570    0.24310    0.92130    1.000
    H1552    H        0.67370    0.25600    0.92900    1.000
    O245     O        0.66890    0.22930    0.25140    1.000
    H1553    H        0.68800    0.22100    0.26400    1.000
    H1554    H        0.63720    0.25450    0.20670    1.000
    H1555    H        0.66930    0.23990    0.23450    1.000
    C1230    C        0.63160    0.20940    0.91230    1.000
    H1556    H        0.61810    0.21270    0.88820    1.000
    H1557    H        0.64660    0.18610    0.91140    1.000
    O246     O        0.61800    0.21940    0.24660    1.000
    H1558    H        0.59620    0.23060    0.24640    1.000
    C1231    C        0.76910    0.17490    0.03230    1.000
    C1232    C        0.80040    0.14390    0.97090    1.000
    C1233    C        0.85640    0.20320    0.84700    1.000
    H1559    H        0.87260    0.22340    0.85330    1.000
    C1234    C        0.84140    0.20170    0.80950    1.000
    C1235    C        0.81730    0.17260    0.80110    1.000
    H1560    H        0.80680    0.17060    0.77670    1.000
    C1236    C        0.80830    0.14590    0.82880    1.000
    H1561    H        0.79110    0.12630    0.82360    1.000
    C1237    C        0.82540    0.14880    0.86470    1.000
    H1562    H        0.82030    0.13000    0.88290    1.000
    C1238    C        0.87930    0.19820    0.02060    1.000
    H1563    H        0.85280    0.19570    0.01870    1.000
    C1239    C        0.89550    0.20950    0.05440    1.000
    C1240    C        0.93420    0.21150    0.05770    1.000
    H1564    H        0.94520    0.21880    0.08090    1.000
    C1241    C        0.95600    0.20330    0.02880    1.000
    H1565    H        0.98250    0.20500    0.03100    1.000
    C1242    C        0.93910    0.19200    0.99430    1.000
    H1566    H        0.95490    0.18540    0.97390    1.000
    C1243    C        0.85330    0.23210    0.77980    1.000
    H1567    H        0.88060    0.22990    0.77510    1.000
    H1568    H        0.84840    0.25750    0.78990    1.000
    C1244    C        0.88080    0.22890    0.09120    1.000
    H1569    H        0.89760    0.24960    0.09920    1.000
    H1570    H        0.87820    0.21070    0.11200    1.000
    N329     N        0.77970    0.20090    0.04940    1.000
    N330     N        0.82660    0.15618    0.95581    1.000
    N331     N        0.84859    0.17760    0.87380    1.000
    N332     N        0.90170    0.19050    0.98960    1.000
    O247     O        0.84430    0.24310    0.07870    1.000
    H1571    H        0.82630    0.25600    0.07100    1.000
    O248     O        0.83110    0.22930    0.74860    1.000
    H1572    H        0.81200    0.22100    0.73600    1.000
    H1573    H        0.86280    0.25450    0.79330    1.000
    H1574    H        0.83070    0.23990    0.76550    1.000
    C1245    C        0.86840    0.20940    0.08770    1.000
    H1575    H        0.88190    0.21270    0.11180    1.000
    H1576    H        0.85340    0.18610    0.08860    1.000
    O249     O        0.88200    0.21940    0.75340    1.000
    H1577    H        0.90380    0.23060    0.75360    1.000
    C1246    C        0.26910    0.67490    0.53230    1.000
    C1247    C        0.30040    0.64390    0.47090    1.000
    C1248    C        0.35640    0.70320    0.34700    1.000
    H1578    H        0.37260    0.72340    0.35330    1.000
    C1249    C        0.34140    0.70170    0.30950    1.000
    C1250    C        0.31730    0.67260    0.30110    1.000
    H1579    H        0.30680    0.67060    0.27670    1.000
    C1251    C        0.30830    0.64590    0.32880    1.000
    H1580    H        0.29110    0.62630    0.32360    1.000
    C1252    C        0.32540    0.64880    0.36470    1.000
    H1581    H        0.32030    0.63000    0.38290    1.000
    C1253    C        0.37930    0.69820    0.52060    1.000
    H1582    H        0.35280    0.69570    0.51870    1.000
    C1254    C        0.39550    0.70950    0.55440    1.000
    C1255    C        0.43420    0.71150    0.55770    1.000
    H1583    H        0.44520    0.71880    0.58090    1.000
    C1256    C        0.45600    0.70330    0.52880    1.000
    H1584    H        0.48250    0.70500    0.53100    1.000
    C1257    C        0.43910    0.69200    0.49430    1.000
    H1585    H        0.45490    0.68540    0.47390    1.000
    C1258    C        0.35330    0.73210    0.27980    1.000
    H1586    H        0.38060    0.72990    0.27510    1.000
    H1587    H        0.34840    0.75750    0.28990    1.000
    C1259    C        0.38080    0.72890    0.59120    1.000
    H1588    H        0.39760    0.74960    0.59920    1.000
    H1589    H        0.37820    0.71070    0.61200    1.000
    N333     N        0.27970    0.70090    0.54940    1.000
    N334     N        0.32660    0.65618    0.45581    1.000
    N335     N        0.34859    0.67760    0.37380    1.000
    N336     N        0.40170    0.69050    0.48960    1.000
    O250     O        0.34430    0.74310    0.57870    1.000
    H1590    H        0.32630    0.75600    0.57100    1.000
    O251     O        0.33110    0.72930    0.24860    1.000
    H1591    H        0.31200    0.72100    0.23600    1.000
    H1592    H        0.36280    0.75450    0.29330    1.000
    H1593    H        0.33070    0.73990    0.26550    1.000
    C1260    C        0.36840    0.70940    0.58770    1.000
    H1594    H        0.38190    0.71270    0.61180    1.000
    H1595    H        0.35340    0.68610    0.58860    1.000
    O252     O        0.38200    0.71940    0.25340    1.000
    H1596    H        0.40380    0.73060    0.25360    1.000
    C1261    C        0.26910    0.32510    0.96770    1.000
    C1262    C        0.30040    0.35610    0.02910    1.000
    C1263    C        0.35640    0.29680    0.15300    1.000
    H1597    H        0.37260    0.27660    0.14670    1.000
    C1264    C        0.34140    0.29830    0.19050    1.000
    C1265    C        0.31730    0.32740    0.19890    1.000
    H1598    H        0.30680    0.32940    0.22330    1.000
    C1266    C        0.30830    0.35410    0.17120    1.000
    H1599    H        0.29110    0.37370    0.17640    1.000
    C1267    C        0.32540    0.35120    0.13530    1.000
    H1600    H        0.32030    0.37000    0.11710    1.000
    C1268    C        0.37930    0.30180    0.97940    1.000
    H1601    H        0.35280    0.30430    0.98130    1.000
    C1269    C        0.39550    0.29050    0.94560    1.000
    C1270    C        0.43420    0.28850    0.94230    1.000
    H1602    H        0.44520    0.28120    0.91910    1.000
    C1271    C        0.45600    0.29670    0.97120    1.000
    H1603    H        0.48250    0.29500    0.96900    1.000
    C1272    C        0.43910    0.30800    0.00570    1.000
    H1604    H        0.45490    0.31460    0.02610    1.000
    C1273    C        0.35330    0.26790    0.22020    1.000
    H1605    H        0.38060    0.27010    0.22490    1.000
    H1606    H        0.34840    0.24250    0.21010    1.000
    C1274    C        0.38080    0.27110    0.90880    1.000
    H1607    H        0.39760    0.25040    0.90080    1.000
    H1608    H        0.37820    0.28930    0.88800    1.000
    N337     N        0.27970    0.29910    0.95060    1.000
    N338     N        0.32660    0.34382    0.04419    1.000
    N339     N        0.34859    0.32240    0.12620    1.000
    N340     N        0.40170    0.30950    0.01040    1.000
    O253     O        0.34430    0.25690    0.92130    1.000
    H1609    H        0.32630    0.24400    0.92900    1.000
    O254     O        0.33110    0.27070    0.25140    1.000
    H1610    H        0.31200    0.27900    0.26400    1.000
    H1611    H        0.36280    0.24550    0.20670    1.000
    H1612    H        0.33070    0.26010    0.23450    1.000
    C1275    C        0.36840    0.29060    0.91230    1.000
    H1613    H        0.38190    0.28730    0.88820    1.000
    H1614    H        0.35340    0.31390    0.91140    1.000
    O255     O        0.38200    0.28060    0.24660    1.000
    H1615    H        0.40380    0.26940    0.24640    1.000
    C1276    C        0.76910    0.82510    0.46770    1.000
    C1277    C        0.80040    0.85610    0.52910    1.000
    C1278    C        0.85640    0.79680    0.65300    1.000
    H1616    H        0.87260    0.77660    0.64670    1.000
    C1279    C        0.84140    0.79830    0.69050    1.000
    C1280    C        0.81730    0.82740    0.69890    1.000
    H1617    H        0.80680    0.82940    0.72330    1.000
    C1281    C        0.80830    0.85410    0.67120    1.000
    H1618    H        0.79110    0.87370    0.67640    1.000
    C1282    C        0.82540    0.85120    0.63530    1.000
    H1619    H        0.82030    0.87000    0.61710    1.000
    C1283    C        0.87930    0.80180    0.47940    1.000
    H1620    H        0.85280    0.80430    0.48130    1.000
    C1284    C        0.89550    0.79050    0.44560    1.000
    C1285    C        0.93420    0.78850    0.44230    1.000
    H1621    H        0.94520    0.78120    0.41910    1.000
    C1286    C        0.95600    0.79670    0.47120    1.000
    H1622    H        0.98250    0.79500    0.46900    1.000
    C1287    C        0.93910    0.80800    0.50570    1.000
    H1623    H        0.95490    0.81460    0.52610    1.000
    C1288    C        0.85330    0.76790    0.72020    1.000
    H1624    H        0.88060    0.77010    0.72490    1.000
    H1625    H        0.84840    0.74250    0.71010    1.000
    C1289    C        0.88080    0.77110    0.40880    1.000
    H1626    H        0.89760    0.75040    0.40080    1.000
    H1627    H        0.87820    0.78930    0.38800    1.000
    N341     N        0.77970    0.79910    0.45060    1.000
    N342     N        0.82660    0.84382    0.54419    1.000
    N343     N        0.84859    0.82240    0.62620    1.000
    N344     N        0.90170    0.80950    0.51040    1.000
    O256     O        0.84430    0.75690    0.42130    1.000
    H1628    H        0.82630    0.74400    0.42900    1.000
    O257     O        0.83110    0.77070    0.75140    1.000
    H1629    H        0.81200    0.77900    0.76400    1.000
    H1630    H        0.86280    0.74550    0.70670    1.000
    H1631    H        0.83070    0.76010    0.73450    1.000
    C1290    C        0.86840    0.79060    0.41230    1.000
    H1632    H        0.88190    0.78730    0.38820    1.000
    H1633    H        0.85340    0.81390    0.41140    1.000
    O258     O        0.88200    0.78060    0.74660    1.000
    H1634    H        0.90380    0.76940    0.74640    1.000
    C1291    C        0.73090    0.82510    0.53230    1.000
    C1292    C        0.69960    0.85610    0.47090    1.000
    C1293    C        0.64360    0.79680    0.34700    1.000
    H1635    H        0.62740    0.77660    0.35330    1.000
    C1294    C        0.65860    0.79830    0.30950    1.000
    C1295    C        0.68270    0.82740    0.30110    1.000
    H1636    H        0.69320    0.82940    0.27670    1.000
    C1296    C        0.69170    0.85410    0.32880    1.000
    H1637    H        0.70890    0.87370    0.32360    1.000
    C1297    C        0.67460    0.85120    0.36470    1.000
    H1638    H        0.67970    0.87000    0.38290    1.000
    C1298    C        0.62070    0.80180    0.52060    1.000
    H1639    H        0.64720    0.80430    0.51870    1.000
    C1299    C        0.60450    0.79050    0.55440    1.000
    C1300    C        0.56580    0.78850    0.55770    1.000
    H1640    H        0.55480    0.78120    0.58090    1.000
    C1301    C        0.54400    0.79670    0.52880    1.000
    H1641    H        0.51750    0.79500    0.53100    1.000
    C1302    C        0.56090    0.80800    0.49430    1.000
    H1642    H        0.54510    0.81460    0.47390    1.000
    C1303    C        0.64670    0.76790    0.27980    1.000
    H1643    H        0.61940    0.77010    0.27510    1.000
    H1644    H        0.65160    0.74250    0.28990    1.000
    C1304    C        0.61920    0.77110    0.59120    1.000
    H1645    H        0.60240    0.75040    0.59920    1.000
    H1646    H        0.62180    0.78930    0.61200    1.000
    N345     N        0.72030    0.79910    0.54940    1.000
    N346     N        0.67340    0.84382    0.45581    1.000
    N347     N        0.65141    0.82240    0.37380    1.000
    N348     N        0.59830    0.80950    0.48960    1.000
    O259     O        0.65570    0.75690    0.57870    1.000
    H1647    H        0.67370    0.74400    0.57100    1.000
    O260     O        0.66890    0.77070    0.24860    1.000
    H1648    H        0.68800    0.77900    0.23600    1.000
    H1649    H        0.63720    0.74550    0.29330    1.000
    H1650    H        0.66930    0.76010    0.26550    1.000
    C1305    C        0.63160    0.79060    0.58770    1.000
    H1651    H        0.61810    0.78730    0.61180    1.000
    H1652    H        0.64660    0.81390    0.58860    1.000
    O261     O        0.61800    0.78060    0.25340    1.000
    H1653    H        0.59620    0.76940    0.25360    1.000
    C1306    C        0.23090    0.32510    0.03230    1.000
    C1307    C        0.19960    0.35610    0.97090    1.000
    C1308    C        0.14360    0.29680    0.84700    1.000
    H1654    H        0.12740    0.27660    0.85330    1.000
    C1309    C        0.15860    0.29830    0.80950    1.000
    C1310    C        0.18270    0.32740    0.80110    1.000
    H1655    H        0.19320    0.32940    0.77670    1.000
    C1311    C        0.19170    0.35410    0.82880    1.000
    H1656    H        0.20890    0.37370    0.82360    1.000
    C1312    C        0.17460    0.35120    0.86470    1.000
    H1657    H        0.17970    0.37000    0.88290    1.000
    C1313    C        0.12070    0.30180    0.02060    1.000
    H1658    H        0.14720    0.30430    0.01870    1.000
    C1314    C        0.10450    0.29050    0.05440    1.000
    C1315    C        0.06580    0.28850    0.05770    1.000
    H1659    H        0.05480    0.28120    0.08090    1.000
    C1316    C        0.04400    0.29670    0.02880    1.000
    H1660    H        0.01750    0.29500    0.03100    1.000
    C1317    C        0.06090    0.30800    0.99430    1.000
    H1661    H        0.04510    0.31460    0.97390    1.000
    C1318    C        0.14670    0.26790    0.77980    1.000
    H1662    H        0.11940    0.27010    0.77510    1.000
    H1663    H        0.15160    0.24250    0.78990    1.000
    C1319    C        0.11920    0.27110    0.09120    1.000
    H1664    H        0.10240    0.25040    0.09920    1.000
    H1665    H        0.12180    0.28930    0.11200    1.000
    N349     N        0.22030    0.29910    0.04940    1.000
    N350     N        0.17340    0.34382    0.95581    1.000
    N351     N        0.15141    0.32240    0.87380    1.000
    N352     N        0.09830    0.30950    0.98960    1.000
    O262     O        0.15570    0.25690    0.07870    1.000
    H1666    H        0.17370    0.24400    0.07100    1.000
    O263     O        0.16890    0.27070    0.74860    1.000
    H1667    H        0.18800    0.27900    0.73600    1.000
    H1668    H        0.13720    0.24550    0.79330    1.000
    H1669    H        0.16930    0.26010    0.76550    1.000
    C1320    C        0.13160    0.29060    0.08770    1.000
    H1670    H        0.11810    0.28730    0.11180    1.000
    H1671    H        0.14660    0.31390    0.08860    1.000
    O264     O        0.11800    0.28060    0.75340    1.000
    H1672    H        0.09620    0.26940    0.75360    1.000
    C1321    C        0.17490    0.03230    0.76910    1.000
    C1322    C        0.14390    0.97090    0.80040    1.000
    C1323    C        0.20320    0.84700    0.85640    1.000
    H1673    H        0.22340    0.85330    0.87260    1.000
    C1324    C        0.20170    0.80950    0.84140    1.000
    C1325    C        0.17260    0.80110    0.81730    1.000
    H1674    H        0.17060    0.77670    0.80680    1.000
    C1326    C        0.14590    0.82880    0.80830    1.000
    H1675    H        0.12630    0.82360    0.79110    1.000
    C1327    C        0.14880    0.86470    0.82540    1.000
    H1676    H        0.13000    0.88290    0.82030    1.000
    C1328    C        0.19820    0.02060    0.87930    1.000
    H1677    H        0.19570    0.01870    0.85280    1.000
    C1329    C        0.20950    0.05440    0.89550    1.000
    C1330    C        0.21150    0.05770    0.93420    1.000
    H1678    H        0.21880    0.08090    0.94520    1.000
    C1331    C        0.20330    0.02880    0.95600    1.000
    H1679    H        0.20500    0.03100    0.98250    1.000
    C1332    C        0.19200    0.99430    0.93910    1.000
    H1680    H        0.18540    0.97390    0.95490    1.000
    C1333    C        0.23210    0.77980    0.85330    1.000
    H1681    H        0.22990    0.77510    0.88060    1.000
    H1682    H        0.25750    0.78990    0.84840    1.000
    C1334    C        0.22890    0.09120    0.88080    1.000
    H1683    H        0.24960    0.09920    0.89760    1.000
    H1684    H        0.21070    0.11200    0.87820    1.000
    N353     N        0.20090    0.04940    0.77970    1.000
    N354     N        0.15618    0.95581    0.82660    1.000
    N355     N        0.17760    0.87380    0.84859    1.000
    N356     N        0.19050    0.98960    0.90170    1.000
    O265     O        0.24310    0.07870    0.84430    1.000
    H1685    H        0.25600    0.07100    0.82630    1.000
    O266     O        0.22930    0.74860    0.83110    1.000
    H1686    H        0.22100    0.73600    0.81200    1.000
    H1687    H        0.25450    0.79330    0.86280    1.000
    H1688    H        0.23990    0.76550    0.83070    1.000
    C1335    C        0.20940    0.08770    0.86840    1.000
    H1689    H        0.21270    0.11180    0.88190    1.000
    H1690    H        0.18610    0.08860    0.85340    1.000
    O267     O        0.21940    0.75340    0.88200    1.000
    H1691    H        0.23060    0.75360    0.90380    1.000
    C1336    C        0.67490    0.53230    0.26910    1.000
    C1337    C        0.64390    0.47090    0.30040    1.000
    C1338    C        0.70320    0.34700    0.35640    1.000
    H1692    H        0.72340    0.35330    0.37260    1.000
    C1339    C        0.70170    0.30950    0.34140    1.000
    C1340    C        0.67260    0.30110    0.31730    1.000
    H1693    H        0.67060    0.27670    0.30680    1.000
    C1341    C        0.64590    0.32880    0.30830    1.000
    H1694    H        0.62630    0.32360    0.29110    1.000
    C1342    C        0.64880    0.36470    0.32540    1.000
    H1695    H        0.63000    0.38290    0.32030    1.000
    C1343    C        0.69820    0.52060    0.37930    1.000
    H1696    H        0.69570    0.51870    0.35280    1.000
    C1344    C        0.70950    0.55440    0.39550    1.000
    C1345    C        0.71150    0.55770    0.43420    1.000
    H1697    H        0.71880    0.58090    0.44520    1.000
    C1346    C        0.70330    0.52880    0.45600    1.000
    H1698    H        0.70500    0.53100    0.48250    1.000
    C1347    C        0.69200    0.49430    0.43910    1.000
    H1699    H        0.68540    0.47390    0.45490    1.000
    C1348    C        0.73210    0.27980    0.35330    1.000
    H1700    H        0.72990    0.27510    0.38060    1.000
    H1701    H        0.75750    0.28990    0.34840    1.000
    C1349    C        0.72890    0.59120    0.38080    1.000
    H1702    H        0.74960    0.59920    0.39760    1.000
    H1703    H        0.71070    0.61200    0.37820    1.000
    N357     N        0.70090    0.54940    0.27970    1.000
    N358     N        0.65618    0.45581    0.32660    1.000
    N359     N        0.67760    0.37380    0.34859    1.000
    N360     N        0.69050    0.48960    0.40170    1.000
    O268     O        0.74310    0.57870    0.34430    1.000
    H1704    H        0.75600    0.57100    0.32630    1.000
    O269     O        0.72930    0.24860    0.33110    1.000
    H1705    H        0.72100    0.23600    0.31200    1.000
    H1706    H        0.75450    0.29330    0.36280    1.000
    H1707    H        0.73990    0.26550    0.33070    1.000
    C1350    C        0.70940    0.58770    0.36840    1.000
    H1708    H        0.71270    0.61180    0.38190    1.000
    H1709    H        0.68610    0.58860    0.35340    1.000
    O270     O        0.71940    0.25340    0.38200    1.000
    H1710    H        0.73060    0.25360    0.40380    1.000
    C1351    C        0.67490    0.46770    0.23090    1.000
    C1352    C        0.64390    0.52910    0.19960    1.000
    C1353    C        0.70320    0.65300    0.14360    1.000
    H1711    H        0.72340    0.64670    0.12740    1.000
    C1354    C        0.70170    0.69050    0.15860    1.000
    C1355    C        0.67260    0.69890    0.18270    1.000
    H1712    H        0.67060    0.72330    0.19320    1.000
    C1356    C        0.64590    0.67120    0.19170    1.000
    H1713    H        0.62630    0.67640    0.20890    1.000
    C1357    C        0.64880    0.63530    0.17460    1.000
    H1714    H        0.63000    0.61710    0.17970    1.000
    C1358    C        0.69820    0.47940    0.12070    1.000
    H1715    H        0.69570    0.48130    0.14720    1.000
    C1359    C        0.70950    0.44560    0.10450    1.000
    C1360    C        0.71150    0.44230    0.06580    1.000
    H1716    H        0.71880    0.41910    0.05480    1.000
    C1361    C        0.70330    0.47120    0.04400    1.000
    H1717    H        0.70500    0.46900    0.01750    1.000
    C1362    C        0.69200    0.50570    0.06090    1.000
    H1718    H        0.68540    0.52610    0.04510    1.000
    C1363    C        0.73210    0.72020    0.14670    1.000
    H1719    H        0.72990    0.72490    0.11940    1.000
    H1720    H        0.75750    0.71010    0.15160    1.000
    C1364    C        0.72890    0.40880    0.11920    1.000
    H1721    H        0.74960    0.40080    0.10240    1.000
    H1722    H        0.71070    0.38800    0.12180    1.000
    N361     N        0.70090    0.45060    0.22030    1.000
    N362     N        0.65618    0.54419    0.17340    1.000
    N363     N        0.67760    0.62620    0.15141    1.000
    N364     N        0.69050    0.51040    0.09830    1.000
    O271     O        0.74310    0.42130    0.15570    1.000
    H1723    H        0.75600    0.42900    0.17370    1.000
    O272     O        0.72930    0.75140    0.16890    1.000
    H1724    H        0.72100    0.76400    0.18800    1.000
    H1725    H        0.75450    0.70670    0.13720    1.000
    H1726    H        0.73990    0.73450    0.16930    1.000
    C1365    C        0.70940    0.41230    0.13160    1.000
    H1727    H        0.71270    0.38820    0.11810    1.000
    H1728    H        0.68610    0.41140    0.14660    1.000
    O273     O        0.71940    0.74660    0.11800    1.000
    H1729    H        0.73060    0.74640    0.09620    1.000
    C1366    C        0.17490    0.96770    0.73090    1.000
    C1367    C        0.14390    0.02910    0.69960    1.000
    C1368    C        0.20320    0.15300    0.64360    1.000
    H1730    H        0.22340    0.14670    0.62740    1.000
    C1369    C        0.20170    0.19050    0.65860    1.000
    C1370    C        0.17260    0.19890    0.68270    1.000
    H1731    H        0.17060    0.22330    0.69320    1.000
    C1371    C        0.14590    0.17120    0.69170    1.000
    H1732    H        0.12630    0.17640    0.70890    1.000
    C1372    C        0.14880    0.13530    0.67460    1.000
    H1733    H        0.13000    0.11710    0.67970    1.000
    C1373    C        0.19820    0.97940    0.62070    1.000
    H1734    H        0.19570    0.98130    0.64720    1.000
    C1374    C        0.20950    0.94560    0.60450    1.000
    C1375    C        0.21150    0.94230    0.56580    1.000
    H1735    H        0.21880    0.91910    0.55480    1.000
    C1376    C        0.20330    0.97120    0.54400    1.000
    H1736    H        0.20500    0.96900    0.51750    1.000
    C1377    C        0.19200    0.00570    0.56090    1.000
    H1737    H        0.18540    0.02610    0.54510    1.000
    C1378    C        0.23210    0.22020    0.64670    1.000
    H1738    H        0.22990    0.22490    0.61940    1.000
    H1739    H        0.25750    0.21010    0.65160    1.000
    C1379    C        0.22890    0.90880    0.61920    1.000
    H1740    H        0.24960    0.90080    0.60240    1.000
    H1741    H        0.21070    0.88800    0.62180    1.000
    N365     N        0.20090    0.95060    0.72030    1.000
    N366     N        0.15618    0.04419    0.67340    1.000
    N367     N        0.17760    0.12620    0.65141    1.000
    N368     N        0.19050    0.01040    0.59830    1.000
    O274     O        0.24310    0.92130    0.65570    1.000
    H1742    H        0.25600    0.92900    0.67370    1.000
    O275     O        0.22930    0.25140    0.66890    1.000
    H1743    H        0.22100    0.26400    0.68800    1.000
    H1744    H        0.25450    0.20670    0.63720    1.000
    H1745    H        0.23990    0.23450    0.66930    1.000
    C1380    C        0.20940    0.91230    0.63160    1.000
    H1746    H        0.21270    0.88820    0.61810    1.000
    H1747    H        0.18610    0.91140    0.64660    1.000
    O276     O        0.21940    0.24660    0.61800    1.000
    H1748    H        0.23060    0.24640    0.59620    1.000
    C1381    C        0.82510    0.53230    0.73090    1.000
    C1382    C        0.85610    0.47090    0.69960    1.000
    C1383    C        0.79680    0.34700    0.64360    1.000
    H1749    H        0.77660    0.35330    0.62740    1.000
    C1384    C        0.79830    0.30950    0.65860    1.000
    C1385    C        0.82740    0.30110    0.68270    1.000
    H1750    H        0.82940    0.27670    0.69320    1.000
    C1386    C        0.85410    0.32880    0.69170    1.000
    H1751    H        0.87370    0.32360    0.70890    1.000
    C1387    C        0.85120    0.36470    0.67460    1.000
    H1752    H        0.87000    0.38290    0.67970    1.000
    C1388    C        0.80180    0.52060    0.62070    1.000
    H1753    H        0.80430    0.51870    0.64720    1.000
    C1389    C        0.79050    0.55440    0.60450    1.000
    C1390    C        0.78850    0.55770    0.56580    1.000
    H1754    H        0.78120    0.58090    0.55480    1.000
    C1391    C        0.79670    0.52880    0.54400    1.000
    H1755    H        0.79500    0.53100    0.51750    1.000
    C1392    C        0.80800    0.49430    0.56090    1.000
    H1756    H        0.81460    0.47390    0.54510    1.000
    C1393    C        0.76790    0.27980    0.64670    1.000
    H1757    H        0.77010    0.27510    0.61940    1.000
    H1758    H        0.74250    0.28990    0.65160    1.000
    C1394    C        0.77110    0.59120    0.61920    1.000
    H1759    H        0.75040    0.59920    0.60240    1.000
    H1760    H        0.78930    0.61200    0.62180    1.000
    N369     N        0.79910    0.54940    0.72030    1.000
    N370     N        0.84382    0.45581    0.67340    1.000
    N371     N        0.82240    0.37380    0.65141    1.000
    N372     N        0.80950    0.48960    0.59830    1.000
    O277     O        0.75690    0.57870    0.65570    1.000
    H1761    H        0.74400    0.57100    0.67370    1.000
    O278     O        0.77070    0.24860    0.66890    1.000
    H1762    H        0.77900    0.23600    0.68800    1.000
    H1763    H        0.74550    0.29330    0.63720    1.000
    H1764    H        0.76010    0.26550    0.66930    1.000
    C1395    C        0.79060    0.58770    0.63160    1.000
    H1765    H        0.78730    0.61180    0.61810    1.000
    H1766    H        0.81390    0.58860    0.64660    1.000
    O279     O        0.78060    0.25340    0.61800    1.000
    H1767    H        0.76940    0.25360    0.59620    1.000
    C1396    C        0.32510    0.03230    0.23090    1.000
    C1397    C        0.35610    0.97090    0.19960    1.000
    C1398    C        0.29680    0.84700    0.14360    1.000
    H1768    H        0.27660    0.85330    0.12740    1.000
    C1399    C        0.29830    0.80950    0.15860    1.000
    C1400    C        0.32740    0.80110    0.18270    1.000
    H1769    H        0.32940    0.77670    0.19320    1.000
    C1401    C        0.35410    0.82880    0.19170    1.000
    H1770    H        0.37370    0.82360    0.20890    1.000
    C1402    C        0.35120    0.86470    0.17460    1.000
    H1771    H        0.37000    0.88290    0.17970    1.000
    C1403    C        0.30180    0.02060    0.12070    1.000
    H1772    H        0.30430    0.01870    0.14720    1.000
    C1404    C        0.29050    0.05440    0.10450    1.000
    C1405    C        0.28850    0.05770    0.06580    1.000
    H1773    H        0.28120    0.08090    0.05480    1.000
    C1406    C        0.29670    0.02880    0.04400    1.000
    H1774    H        0.29500    0.03100    0.01750    1.000
    C1407    C        0.30800    0.99430    0.06090    1.000
    H1775    H        0.31460    0.97390    0.04510    1.000
    C1408    C        0.26790    0.77980    0.14670    1.000
    H1776    H        0.27010    0.77510    0.11940    1.000
    H1777    H        0.24250    0.78990    0.15160    1.000
    C1409    C        0.27110    0.09120    0.11920    1.000
    H1778    H        0.25040    0.09920    0.10240    1.000
    H1779    H        0.28930    0.11200    0.12180    1.000
    N373     N        0.29910    0.04940    0.22030    1.000
    N374     N        0.34382    0.95581    0.17340    1.000
    N375     N        0.32240    0.87380    0.15141    1.000
    N376     N        0.30950    0.98960    0.09830    1.000
    O280     O        0.25690    0.07870    0.15570    1.000
    H1780    H        0.24400    0.07100    0.17370    1.000
    O281     O        0.27070    0.74860    0.16890    1.000
    H1781    H        0.27900    0.73600    0.18800    1.000
    H1782    H        0.24550    0.79330    0.13720    1.000
    H1783    H        0.26010    0.76550    0.16930    1.000
    C1410    C        0.29060    0.08770    0.13160    1.000
    H1784    H        0.28730    0.11180    0.11810    1.000
    H1785    H        0.31390    0.08860    0.14660    1.000
    O282     O        0.28060    0.75340    0.11800    1.000
    H1786    H        0.26940    0.75360    0.09620    1.000
    C1411    C        0.32510    0.96770    0.26910    1.000
    C1412    C        0.35610    0.02910    0.30040    1.000
    C1413    C        0.29680    0.15300    0.35640    1.000
    H1787    H        0.27660    0.14670    0.37260    1.000
    C1414    C        0.29830    0.19050    0.34140    1.000
    C1415    C        0.32740    0.19890    0.31730    1.000
    H1788    H        0.32940    0.22330    0.30680    1.000
    C1416    C        0.35410    0.17120    0.30830    1.000
    H1789    H        0.37370    0.17640    0.29110    1.000
    C1417    C        0.35120    0.13530    0.32540    1.000
    H1790    H        0.37000    0.11710    0.32030    1.000
    C1418    C        0.30180    0.97940    0.37930    1.000
    H1791    H        0.30430    0.98130    0.35280    1.000
    C1419    C        0.29050    0.94560    0.39550    1.000
    C1420    C        0.28850    0.94230    0.43420    1.000
    H1792    H        0.28120    0.91910    0.44520    1.000
    C1421    C        0.29670    0.97120    0.45600    1.000
    H1793    H        0.29500    0.96900    0.48250    1.000
    C1422    C        0.30800    0.00570    0.43910    1.000
    H1794    H        0.31460    0.02610    0.45490    1.000
    C1423    C        0.26790    0.22020    0.35330    1.000
    H1795    H        0.27010    0.22490    0.38060    1.000
    H1796    H        0.24250    0.21010    0.34840    1.000
    C1424    C        0.27110    0.90880    0.38080    1.000
    H1797    H        0.25040    0.90080    0.39760    1.000
    H1798    H        0.28930    0.88800    0.37820    1.000
    N377     N        0.29910    0.95060    0.27970    1.000
    N378     N        0.34382    0.04419    0.32660    1.000
    N379     N        0.32240    0.12620    0.34859    1.000
    N380     N        0.30950    0.01040    0.40170    1.000
    O283     O        0.25690    0.92130    0.34430    1.000
    H1799    H        0.24400    0.92900    0.32630    1.000
    O284     O        0.27070    0.25140    0.33110    1.000
    H1800    H        0.27900    0.26400    0.31200    1.000
    H1801    H        0.24550    0.20670    0.36280    1.000
    H1802    H        0.26010    0.23450    0.33070    1.000
    C1425    C        0.29060    0.91230    0.36840    1.000
    H1803    H        0.28730    0.88820    0.38190    1.000
    H1804    H        0.31390    0.91140    0.35340    1.000
    O285     O        0.28060    0.24660    0.38200    1.000
    H1805    H        0.26940    0.24640    0.40380    1.000
    C1426    C        0.82510    0.46770    0.76910    1.000
    C1427    C        0.85610    0.52910    0.80040    1.000
    C1428    C        0.79680    0.65300    0.85640    1.000
    H1806    H        0.77660    0.64670    0.87260    1.000
    C1429    C        0.79830    0.69050    0.84140    1.000
    C1430    C        0.82740    0.69890    0.81730    1.000
    H1807    H        0.82940    0.72330    0.80680    1.000
    C1431    C        0.85410    0.67120    0.80830    1.000
    H1808    H        0.87370    0.67640    0.79110    1.000
    C1432    C        0.85120    0.63530    0.82540    1.000
    H1809    H        0.87000    0.61710    0.82030    1.000
    C1433    C        0.80180    0.47940    0.87930    1.000
    H1810    H        0.80430    0.48130    0.85280    1.000
    C1434    C        0.79050    0.44560    0.89550    1.000
    C1435    C        0.78850    0.44230    0.93420    1.000
    H1811    H        0.78120    0.41910    0.94520    1.000
    C1436    C        0.79670    0.47120    0.95600    1.000
    H1812    H        0.79500    0.46900    0.98250    1.000
    C1437    C        0.80800    0.50570    0.93910    1.000
    H1813    H        0.81460    0.52610    0.95490    1.000
    C1438    C        0.76790    0.72020    0.85330    1.000
    H1814    H        0.77010    0.72490    0.88060    1.000
    H1815    H        0.74250    0.71010    0.84840    1.000
    C1439    C        0.77110    0.40880    0.88080    1.000
    H1816    H        0.75040    0.40080    0.89760    1.000
    H1817    H        0.78930    0.38800    0.87820    1.000
    N381     N        0.79910    0.45060    0.77970    1.000
    N382     N        0.84382    0.54419    0.82660    1.000
    N383     N        0.82240    0.62620    0.84859    1.000
    N384     N        0.80950    0.51040    0.90170    1.000
    O286     O        0.75690    0.42130    0.84430    1.000
    H1818    H        0.74400    0.42900    0.82630    1.000
    O287     O        0.77070    0.75140    0.83110    1.000
    H1819    H        0.77900    0.76400    0.81200    1.000
    H1820    H        0.74550    0.70670    0.86280    1.000
    H1821    H        0.76010    0.73450    0.83070    1.000
    C1440    C        0.79060    0.41230    0.86840    1.000
    H1822    H        0.78730    0.38820    0.88190    1.000
    H1823    H        0.81390    0.41140    0.85340    1.000
    O288     O        0.78060    0.74660    0.88200    1.000
    H1824    H        0.76940    0.74640    0.90380    1.000
    Fe1      Fe       0.12500    0.81796    0.06796    1.000
    Fe2      Fe       0.62500    0.31796    0.56796    1.000
    Fe3      Fe       0.37500    0.18204    0.56796    1.000
    Fe4      Fe       0.87500    0.68204    0.06796    1.000
    Fe5      Fe       0.87500    0.31796    0.43204    1.000
    Fe6      Fe       0.37500    0.81796    0.93204    1.000
    Fe7      Fe       0.62500    0.68204    0.93204    1.000
    Fe8      Fe       0.12500    0.18204    0.43204    1.000
    Fe9      Fe       0.06796    0.12500    0.81796    1.000
    Fe10     Fe       0.56796    0.62500    0.31796    1.000
    Fe11     Fe       0.56796    0.37500    0.18204    1.000
    Fe12     Fe       0.06796    0.87500    0.68204    1.000
    Fe13     Fe       0.43204    0.87500    0.31796    1.000
    Fe14     Fe       0.93204    0.37500    0.81796    1.000
    Fe15     Fe       0.93204    0.62500    0.68204    1.000
    Fe16     Fe       0.43204    0.12500    0.18204    1.000
    Fe17     Fe       0.81796    0.06796    0.12500    1.000
    Fe18     Fe       0.31796    0.56796    0.62500    1.000
    Fe19     Fe       0.18204    0.56796    0.37500    1.000
    Fe20     Fe       0.68204    0.06796    0.87500    1.000
    Fe21     Fe       0.31796    0.43204    0.87500    1.000
    Fe22     Fe       0.81796    0.93204    0.37500    1.000
    Fe23     Fe       0.68204    0.93204    0.62500    1.000
    Fe24     Fe       0.18204    0.43204    0.12500    1.000
    Fe25     Fe       0.87500    0.18204    0.93204    1.000
    Fe26     Fe       0.37500    0.68204    0.43204    1.000
    Fe27     Fe       0.62500    0.81796    0.43204    1.000
    Fe28     Fe       0.12500    0.31796    0.93204    1.000
    Fe29     Fe       0.12500    0.68204    0.56796    1.000
    Fe30     Fe       0.62500    0.18204    0.06796    1.000
    Fe31     Fe       0.37500    0.31796    0.06796    1.000
    Fe32     Fe       0.87500    0.81796    0.56796    1.000
    Fe33     Fe       0.93204    0.87500    0.18204    1.000
    Fe34     Fe       0.43204    0.37500    0.68204    1.000
    Fe35     Fe       0.43204    0.62500    0.81796    1.000
    Fe36     Fe       0.93204    0.12500    0.31796    1.000
    Fe37     Fe       0.56796    0.12500    0.68204    1.000
    Fe38     Fe       0.06796    0.62500    0.18204    1.000
    Fe39     Fe       0.06796    0.37500    0.31796    1.000
    Fe40     Fe       0.56796    0.87500    0.81796    1.000
    Fe41     Fe       0.18204    0.93204    0.87500    1.000
    Fe42     Fe       0.68204    0.43204    0.37500    1.000
    Fe43     Fe       0.81796    0.43204    0.62500    1.000
    Fe44     Fe       0.31796    0.93204    0.12500    1.000
    Fe45     Fe       0.68204    0.56796    0.12500    1.000
    Fe46     Fe       0.18204    0.06796    0.62500    1.000
    Fe47     Fe       0.31796    0.06796    0.37500    1.000
    Fe48     Fe       0.81796    0.56796    0.87500    1.000
    W1       W        0.00000    0.75000    0.12500    1.000
    W2       W        0.50000    0.25000    0.62500    1.000
    W3       W        0.00000    0.25000    0.37500    1.000
    W4       W        0.50000    0.75000    0.87500    1.000
    W5       W        0.12500    0.00000    0.75000    1.000
    W6       W        0.62500    0.50000    0.25000    1.000
    W7       W        0.37500    0.00000    0.25000    1.000
    W8       W        0.87500    0.50000    0.75000    1.000
    W9       W        0.75000    0.12500    0.00000    1.000
    W10      W        0.25000    0.62500    0.50000    1.000
    W11      W        0.25000    0.37500    0.00000    1.000
    W12      W        0.75000    0.87500    0.50000    1.000
    W13      W        0.50000    0.25000    0.12500    1.000
    W14      W        0.00000    0.75000    0.62500    1.000
    W15      W        0.00000    0.25000    0.87500    1.000
    W16      W        0.50000    0.75000    0.37500    1.000
    W17      W        0.75000    0.37500    0.50000    1.000
    W18      W        0.25000    0.87500    0.00000    1.000
    W19      W        0.75000    0.62500    0.00000    1.000
    W20      W        0.25000    0.12500    0.50000    1.000
    W21      W        0.87500    0.00000    0.25000    1.000
    W22      W        0.37500    0.50000    0.75000    1.000
    W23      W        0.12500    0.50000    0.25000    1.000
    W24      W        0.62500    0.00000    0.75000    1.000
