# CIF file generated by openbabel 3.1.0, see https://openbabel.org
data_I
_chemical_name_common 'ROSKER_clean'
_cell_length_a 11.3416
_cell_length_b 14.7404
_cell_length_c 15.1979
_cell_angle_alpha 90
_cell_angle_beta 90
_cell_angle_gamma 90
_space_group_name_H-M_alt 'P 1'
_space_group_name_Hall 'P 1'
loop_
    _symmetry_equiv_pos_as_xyz
    x,y,z
loop_
    _atom_site_label
    _atom_site_type_symbol
    _atom_site_fract_x
    _atom_site_fract_y
    _atom_site_fract_z
    _atom_site_occupancy
    Mn1      Mn       0.19392    0.69358    0.52249    1.000
    Mn2      Mn       0.69392    0.80642    0.52249    1.000
    Mn3      Mn       0.69392    0.80642    0.97751    1.000
    Mn4      Mn       0.30608    0.19358    0.02249    1.000
    Mn5      Mn       0.80608    0.30642    0.47751    1.000
    Mn6      Mn       0.19392    0.69358    0.97751    1.000
    Mn7      Mn       0.30608    0.19358    0.47751    1.000
    Mn8      Mn       0.80608    0.30642    0.02249    1.000
    H1       H        0.24860    0.00270    0.17400    1.000
    H2       H        0.48090    0.70420    0.82560    1.000
    H3       H        0.98090    0.79580    0.82560    1.000
    H4       H        0.48090    0.70420    0.67440    1.000
    H5       H        0.24860    0.00270    0.32600    1.000
    H6       H        0.75140    0.99730    0.82600    1.000
    H7       H        0.74860    0.49730    0.32600    1.000
    H8       H        0.51910    0.29580    0.32560    1.000
    H9       H        0.74860    0.49730    0.17400    1.000
    H10      H        0.25140    0.50270    0.67400    1.000
    H11      H        0.98090    0.79580    0.67440    1.000
    H12      H        0.01910    0.20420    0.32560    1.000
    H13      H        0.51910    0.29580    0.17440    1.000
    H14      H        0.75140    0.99730    0.67400    1.000
    H15      H        0.01910    0.20420    0.17440    1.000
    H16      H        0.25140    0.50270    0.82600    1.000
    W1       W        0.63272    0.04700    0.25000    1.000
    W2       W        0.36728    0.95300    0.75000    1.000
    W3       W        0.86728    0.54700    0.75000    1.000
    W4       W        0.13272    0.45300    0.25000    1.000
    C1       C        0.71470    0.14557    0.16404    1.000
    C2       C        0.28530    0.85443    0.83596    1.000
    C3       C        0.21470    0.35443    0.33596    1.000
    C4       C        0.00100    0.39594    0.16360    1.000
    C5       C        0.34360    0.04080    0.86196    1.000
    C6       C        0.20480    0.04571    0.20470    1.000
    C7       C        0.43130    0.66517    0.70502    1.000
    C8       C        0.79520    0.95429    0.79530    1.000
    C9       C        0.50100    0.10406    0.33640    1.000
    C10      C        0.93130    0.83483    0.70502    1.000
    C11      C        0.78530    0.64557    0.66404    1.000
    C12      C        0.49900    0.89594    0.83640    1.000
    C13      C        0.15640    0.54080    0.13804    1.000
    C14      C        0.68340    0.50590    0.75000    1.000
    C15      C        0.84360    0.45920    0.86196    1.000
    C16      C        0.56870    0.33483    0.29498    1.000
    C17      C        0.50810    0.05220    0.75000    1.000
    C18      C        0.65640    0.95920    0.13804    1.000
    C19      C        0.29520    0.54571    0.70470    1.000
    C20      C        0.79520    0.95429    0.70470    1.000
    C21      C        0.71470    0.14557    0.33596    1.000
    C22      C        0.06870    0.16517    0.29498    1.000
    C23      C        0.56870    0.33483    0.20502    1.000
    C24      C        0.81660    0.00590    0.25000    1.000
    C25      C        0.99190    0.55220    0.25000    1.000
    C26      C        0.93130    0.83483    0.79498    1.000
    C27      C        0.28530    0.85443    0.66404    1.000
    C28      C        0.49900    0.89594    0.66360    1.000
    C29      C        0.50100    0.10406    0.16360    1.000
    C30      C        0.84360    0.45920    0.63804    1.000
    C31      C        0.21470    0.35443    0.16404    1.000
    C32      C        0.99900    0.60406    0.66360    1.000
    C33      C        0.18340    0.99410    0.75000    1.000
    C34      C        0.43130    0.66517    0.79498    1.000
    C35      C        0.70480    0.45429    0.20470    1.000
    C36      C        0.65640    0.95920    0.36196    1.000
    C37      C        0.78530    0.64557    0.83596    1.000
    C38      C        0.06870    0.16517    0.20502    1.000
    C39      C        0.20480    0.04571    0.29530    1.000
    C40      C        0.70480    0.45429    0.29530    1.000
    C41      C        0.99900    0.60406    0.83640    1.000
    C42      C        0.00100    0.39594    0.33640    1.000
    C43      C        0.49190    0.94780    0.25000    1.000
    C44      C        0.29520    0.54571    0.79530    1.000
    C45      C        0.34360    0.04080    0.63804    1.000
    C46      C        0.00810    0.44780    0.75000    1.000
    C47      C        0.31660    0.49410    0.25000    1.000
    C48      C        0.15640    0.54080    0.36196    1.000
    N1       N        0.64116    0.39188    0.16052    1.000
    N2       N        0.43070    0.13312    0.38331    1.000
    N3       N        0.08650    0.01720    0.75000    1.000
    N4       N        0.14116    0.10812    0.33948    1.000
    N5       N        0.75560    0.19966    0.11824    1.000
    N6       N        0.91750    0.60500    0.25000    1.000
    N7       N        0.08250    0.39500    0.75000    1.000
    N8       N        0.43070    0.13312    0.11669    1.000
    N9       N        0.58250    0.10500    0.75000    1.000
    N10      N        0.24440    0.80034    0.61824    1.000
    N11      N        0.35884    0.60812    0.83948    1.000
    N12      N        0.66610    0.91182    0.42201    1.000
    N13      N        0.25560    0.30034    0.38176    1.000
    N14      N        0.85884    0.89188    0.83948    1.000
    N15      N        0.56930    0.86688    0.61669    1.000
    N16      N        0.74440    0.69966    0.88176    1.000
    N17      N        0.91350    0.98280    0.25000    1.000
    N18      N        0.14116    0.10812    0.16052    1.000
    N19      N        0.33390    0.08818    0.57799    1.000
    N20      N        0.16610    0.58818    0.07799    1.000
    N21      N        0.58650    0.48280    0.75000    1.000
    N22      N        0.41350    0.51720    0.25000    1.000
    N23      N        0.25560    0.30034    0.11824    1.000
    N24      N        0.85884    0.89188    0.66052    1.000
    N25      N        0.24440    0.80034    0.88176    1.000
    N26      N        0.93070    0.36688    0.11669    1.000
    N27      N        0.56930    0.86688    0.88331    1.000
    N28      N        0.83390    0.41182    0.57799    1.000
    N29      N        0.06930    0.63312    0.88331    1.000
    N30      N        0.06930    0.63312    0.61669    1.000
    N31      N        0.41750    0.89500    0.25000    1.000
    N32      N        0.35884    0.60812    0.66052    1.000
    N33      N        0.16610    0.58818    0.42201    1.000
    N34      N        0.64116    0.39188    0.33948    1.000
    N35      N        0.93070    0.36688    0.38331    1.000
    N36      N        0.74440    0.69966    0.61824    1.000
    N37      N        0.66610    0.91182    0.07799    1.000
    N38      N        0.75560    0.19966    0.38176    1.000
    N39      N        0.33390    0.08818    0.92201    1.000
    N40      N        0.83390    0.41182    0.92201    1.000
    O1       O        0.84880    0.88519    0.92510    1.000
    O2       O        0.34880    0.61481    0.57490    1.000
    O3       O        0.15120    0.11481    0.42510    1.000
    O4       O        0.15120    0.11481    0.07490    1.000
    O5       O        0.34880    0.61481    0.92510    1.000
    O6       O        0.84880    0.88519    0.57490    1.000
    O7       O        0.65120    0.38519    0.42510    1.000
    O8       O        0.65120    0.38519    0.07490    1.000
