# CIF file generated by openbabel 3.1.0, see https://openbabel.org
data_I
_chemical_name_common 'image0'
_cell_length_a 16.2079
_cell_length_b 17.833
_cell_length_c 11.6508
_cell_angle_alpha 90
_cell_angle_beta 90
_cell_angle_gamma 90
_space_group_name_H-M_alt 'P 1'
_space_group_name_Hall 'P 1'
loop_
    _symmetry_equiv_pos_as_xyz
    x,y,z
loop_
    _atom_site_label
    _atom_site_type_symbol
    _atom_site_fract_x
    _atom_site_fract_y
    _atom_site_fract_z
    _atom_site_occupancy
    C1       C        0.19890    0.39990    0.83570    1.000
    C2       C        0.45930    0.44950    0.74460    1.000
    H1       H        0.42964    0.41305    0.78416    1.000
    C3       C        0.45820    0.44750    0.62660    1.000
    H2       H        0.42870    0.41013    0.58903    1.000
    C4       C        0.43390    0.13000    0.74570    1.000
    H3       H        0.46055    0.09198    0.78586    1.000
    C5       C        0.43880    0.13000    0.62690    1.000
    H4       H        0.46821    0.09249    0.58951    1.000
    C6       C        0.40016    0.18545    0.56370    1.000
    C7       C        0.35920    0.23957    0.62560    1.000
    H5       H        0.33311    0.27884    0.58771    1.000
    C8       C        0.35670    0.23576    0.74440    1.000
    H6       H        0.32828    0.27298    0.78383    1.000
    N1       N        0.20029    0.40081    0.73670    1.000
    N2       N        0.39288    0.18172    0.80501    1.000
    C9       C        0.80110    0.60010    0.83570    1.000
    C10      C        0.54070    0.55050    0.74460    1.000
    H7       H        0.57036    0.58695    0.78416    1.000
    C11      C        0.54180    0.55250    0.62660    1.000
    H8       H        0.57130    0.58987    0.58903    1.000
    C12      C        0.56610    0.87000    0.74570    1.000
    H9       H        0.53945    0.90802    0.78586    1.000
    C13      C        0.56120    0.87000    0.62690    1.000
    H10      H        0.53179    0.90751    0.58951    1.000
    C14      C        0.59984    0.81455    0.56370    1.000
    C15      C        0.64080    0.76043    0.62560    1.000
    H11      H        0.66689    0.72116    0.58771    1.000
    C16      C        0.64330    0.76424    0.74440    1.000
    H12      H        0.67172    0.72702    0.78383    1.000
    N3       N        0.79971    0.59919    0.73670    1.000
    N4       N        0.60712    0.81828    0.80501    1.000
    C17      C        0.30110    0.89990    0.16430    1.000
    C18      C        0.04070    0.94950    0.25540    1.000
    H13      H        0.07036    0.91305    0.21584    1.000
    C19      C        0.04180    0.94750    0.37340    1.000
    H14      H        0.07130    0.91013    0.41097    1.000
    C20      C        0.06610    0.63000    0.25430    1.000
    H15      H        0.03945    0.59198    0.21414    1.000
    C21      C        0.06120    0.63000    0.37310    1.000
    H16      H        0.03179    0.59249    0.41049    1.000
    C22      C        0.09984    0.68545    0.43630    1.000
    C23      C        0.14080    0.73957    0.37440    1.000
    H17      H        0.16689    0.77884    0.41229    1.000
    C24      C        0.14330    0.73576    0.25560    1.000
    H18      H        0.17172    0.77298    0.21617    1.000
    N5       N        0.29971    0.90081    0.26330    1.000
    N6       N        0.10712    0.68172    0.19499    1.000
    C25      C        0.69890    0.10010    0.16430    1.000
    C26      C        0.95930    0.05050    0.25540    1.000
    H19      H        0.92964    0.08695    0.21584    1.000
    C27      C        0.95820    0.05250    0.37340    1.000
    H20      H        0.92870    0.08987    0.41097    1.000
    C28      C        0.93390    0.37000    0.25430    1.000
    H21      H        0.96055    0.40802    0.21414    1.000
    C29      C        0.93880    0.37000    0.37310    1.000
    H22      H        0.96821    0.40751    0.41049    1.000
    C30      C        0.90016    0.31455    0.43630    1.000
    C31      C        0.85920    0.26043    0.37440    1.000
    H23      H        0.83311    0.22116    0.41229    1.000
    C32      C        0.85670    0.26424    0.25560    1.000
    H24      H        0.82828    0.22702    0.21617    1.000
    N7       N        0.70029    0.09919    0.26330    1.000
    N8       N        0.89288    0.31828    0.19499    1.000
    C33      C        0.80110    0.60010    0.16430    1.000
    C34      C        0.54070    0.55050    0.25540    1.000
    H25      H        0.57036    0.58695    0.21584    1.000
    C35      C        0.54180    0.55250    0.37340    1.000
    H26      H        0.57130    0.58987    0.41097    1.000
    C36      C        0.56610    0.87000    0.25430    1.000
    H27      H        0.53945    0.90802    0.21414    1.000
    C37      C        0.56120    0.87000    0.37310    1.000
    H28      H        0.53179    0.90751    0.41049    1.000
    C38      C        0.59984    0.81455    0.43630    1.000
    C39      C        0.64080    0.76043    0.37440    1.000
    H29      H        0.66689    0.72116    0.41229    1.000
    C40      C        0.64330    0.76424    0.25560    1.000
    H30      H        0.67172    0.72702    0.21617    1.000
    N9       N        0.79971    0.59919    0.26330    1.000
    N10      N        0.60712    0.81828    0.19499    1.000
    C41      C        0.19890    0.39990    0.16430    1.000
    C42      C        0.45930    0.44950    0.25540    1.000
    H31      H        0.42964    0.41305    0.21584    1.000
    C43      C        0.45820    0.44750    0.37340    1.000
    H32      H        0.42870    0.41013    0.41097    1.000
    C44      C        0.43390    0.13000    0.25430    1.000
    H33      H        0.46055    0.09198    0.21414    1.000
    C45      C        0.43880    0.13000    0.37310    1.000
    H34      H        0.46821    0.09249    0.41049    1.000
    C46      C        0.40016    0.18545    0.43630    1.000
    C47      C        0.35920    0.23957    0.37440    1.000
    H35      H        0.33311    0.27884    0.41229    1.000
    C48      C        0.35670    0.23576    0.25560    1.000
    H36      H        0.32828    0.27298    0.21617    1.000
    N11      N        0.20029    0.40081    0.26330    1.000
    N12      N        0.39288    0.18172    0.19499    1.000
    C49      C        0.69890    0.10010    0.83570    1.000
    C50      C        0.95930    0.05050    0.74460    1.000
    H37      H        0.92964    0.08695    0.78416    1.000
    C51      C        0.95820    0.05250    0.62660    1.000
    H38      H        0.92870    0.08987    0.58903    1.000
    C52      C        0.93390    0.37000    0.74570    1.000
    H39      H        0.96055    0.40802    0.78586    1.000
    C53      C        0.93880    0.37000    0.62690    1.000
    H40      H        0.96821    0.40751    0.58951    1.000
    C54      C        0.90016    0.31455    0.56370    1.000
    C55      C        0.85920    0.26043    0.62560    1.000
    H41      H        0.83311    0.22116    0.58771    1.000
    C56      C        0.85670    0.26424    0.74440    1.000
    H42      H        0.82828    0.22702    0.78383    1.000
    N13      N        0.70029    0.09919    0.73670    1.000
    N14      N        0.89288    0.31828    0.80501    1.000
    C57      C        0.30110    0.89990    0.83570    1.000
    C58      C        0.04070    0.94950    0.74460    1.000
    H43      H        0.07036    0.91305    0.78416    1.000
    C59      C        0.04180    0.94750    0.62660    1.000
    H44      H        0.07130    0.91013    0.58903    1.000
    C60      C        0.06610    0.63000    0.74570    1.000
    H45      H        0.03945    0.59198    0.78586    1.000
    C61      C        0.06120    0.63000    0.62690    1.000
    H46      H        0.03179    0.59249    0.58951    1.000
    C62      C        0.09984    0.68545    0.56370    1.000
    C63      C        0.14080    0.73957    0.62560    1.000
    H47      H        0.16689    0.77884    0.58771    1.000
    C64      C        0.14330    0.73576    0.74440    1.000
    H48      H        0.17172    0.77298    0.78383    1.000
    N15      N        0.29971    0.90081    0.73670    1.000
    N16      N        0.10712    0.68172    0.80501    1.000
    C65      C        0.08840    0.36889    0.00000    1.000
    C66      C        0.16670    0.50120    0.00000    1.000
    C67      C        0.23850    0.29980    0.00000    1.000
    C68      C        0.30980    0.43146    0.00000    1.000
    N17      N        0.02051    0.35099    0.00000    1.000
    N18      N        0.15060    0.56365    0.00000    1.000
    N19      N        0.27124    0.24251    0.00000    1.000
    N20      N        0.37788    0.44824    0.00000    1.000
    Mn1      Mn       0.19940    0.39971    0.00000    1.000
    Mn2      Mn       0.38922    0.17837    0.00000    1.000
    C69      C        0.91160    0.63111    0.00000    1.000
    C70      C        0.83330    0.49880    0.00000    1.000
    C71      C        0.76150    0.70020    0.00000    1.000
    C72      C        0.69020    0.56854    0.00000    1.000
    N21      N        0.97949    0.64901    0.00000    1.000
    N22      N        0.84940    0.43635    0.00000    1.000
    N23      N        0.72876    0.75749    0.00000    1.000
    N24      N        0.62212    0.55176    0.00000    1.000
    Mn3      Mn       0.80060    0.60029    0.00000    1.000
    Mn4      Mn       0.61078    0.82163    0.00000    1.000
    C73      C        0.41160    0.86889    0.00000    1.000
    C74      C        0.33330    0.00120    0.00000    1.000
    C75      C        0.26150    0.79980    0.00000    1.000
    C76      C        0.19020    0.93146    0.00000    1.000
    N25      N        0.47949    0.85099    0.00000    1.000
    N26      N        0.34940    0.06365    0.00000    1.000
    N27      N        0.22876    0.74251    0.00000    1.000
    N28      N        0.12212    0.94824    0.00000    1.000
    Mn5      Mn       0.30060    0.89971    0.00000    1.000
    Mn6      Mn       0.11078    0.67837    0.00000    1.000
    C77      C        0.58840    0.13111    0.00000    1.000
    C78      C        0.66670    0.99880    0.00000    1.000
    C79      C        0.73850    0.20020    0.00000    1.000
    C80      C        0.80980    0.06854    0.00000    1.000
    N29      N        0.52051    0.14901    0.00000    1.000
    N30      N        0.65060    0.93635    0.00000    1.000
    N31      N        0.77124    0.25749    0.00000    1.000
    N32      N        0.87788    0.05176    0.00000    1.000
    Mn7      Mn       0.69940    0.10029    0.00000    1.000
    Mn8      Mn       0.88922    0.32163    0.00000    1.000
    C81      C        0.50000    0.50000    0.56400    1.000
    N33      N        0.50000    0.50000    0.80510    1.000
    C82      C        0.00000    0.00000    0.43600    1.000
    N34      N        0.00000    0.00000    0.19490    1.000
    C83      C        0.50000    0.50000    0.43600    1.000
    N35      N        0.50000    0.50000    0.19490    1.000
    C84      C        0.00000    0.00000    0.56400    1.000
    N36      N        0.00000    0.00000    0.80510    1.000
    Mn9      Mn       0.50000    0.50000    0.00000    1.000
    Mn10     Mn       0.00000    0.00000    0.00000    1.000
