# CIF file generated by openbabel 3.1.0, see https://openbabel.org
data_I
_chemical_name_common 'image0'
_cell_length_a 9.7904
_cell_length_b 14.0287
_cell_length_c 11.8651
_cell_angle_alpha 90
_cell_angle_beta 104.69
_cell_angle_gamma 90
_space_group_name_H-M_alt 'P 1'
_space_group_name_Hall 'P 1'
loop_
    _symmetry_equiv_pos_as_xyz
    x,y,z
loop_
    _atom_site_label
    _atom_site_type_symbol
    _atom_site_fract_x
    _atom_site_fract_y
    _atom_site_fract_z
    _atom_site_occupancy
    Zn1      Zn       0.37070    0.38779    0.14186    1.000
    Zn2      Zn       0.58673    0.38501    0.45158    1.000
    Zn3      Zn       0.99661    0.54473    0.82842    1.000
    P1       P        0.09655    0.34971    0.92853    1.000
    P2       P        0.70230    0.50289    0.66161    1.000
    P3       P        0.69087    0.44587    0.21937    1.000
    O1       O        0.69530    0.40110    0.61280    1.000
    O2       O        0.85700    0.54160    0.67580    1.000
    O3       O        0.00150    0.41760    0.88480    1.000
    O4       O        0.67440    0.50060    0.78180    1.000
    O5       O        0.25410    0.37690    0.98380    1.000
    O6       O        0.60540    0.56890    0.57810    1.000
    O7       O        0.06860    0.25070    0.91380    1.000
    O8       O        0.68890    0.43590    0.34480    1.000
    O9       O        0.56720    0.39660    0.13450    1.000
    O10      O        0.68000    0.55550    0.19490    1.000
    O11      O        0.82680    0.40940    0.19620    1.000
    O12      O        0.06900    0.35170    0.08920    1.000
    H1       H        0.69370    0.56820    0.12390    1.000
    Zn4      Zn       0.12930    0.88779    0.35814    1.000
    Zn5      Zn       0.91327    0.88501    0.04842    1.000
    Zn6      Zn       0.50339    0.04473    0.67158    1.000
    P4       P        0.40345    0.84971    0.57147    1.000
    P5       P        0.79770    0.00289    0.83839    1.000
    P6       P        0.80913    0.94587    0.28063    1.000
    O13      O        0.80470    0.90110    0.88720    1.000
    O14      O        0.64300    0.04160    0.82420    1.000
    O15      O        0.49850    0.91760    0.61520    1.000
    O16      O        0.82560    0.00060    0.71820    1.000
    O17      O        0.24590    0.87690    0.51620    1.000
    O18      O        0.89460    0.06890    0.92190    1.000
    O19      O        0.43140    0.75070    0.58620    1.000
    O20      O        0.81110    0.93590    0.15520    1.000
    O21      O        0.93280    0.89660    0.36550    1.000
    O22      O        0.82000    0.05550    0.30510    1.000
    O23      O        0.67320    0.90940    0.30380    1.000
    O24      O        0.43100    0.85170    0.41080    1.000
    H2       H        0.80630    0.06820    0.37610    1.000
    Zn7      Zn       0.62930    0.61221    0.85814    1.000
    Zn8      Zn       0.41327    0.61499    0.54842    1.000
    Zn9      Zn       0.00339    0.45527    0.17158    1.000
    P7       P        0.90345    0.65029    0.07147    1.000
    P8       P        0.29770    0.49711    0.33839    1.000
    P9       P        0.30913    0.55413    0.78063    1.000
    O25      O        0.30470    0.59890    0.38720    1.000
    O26      O        0.14300    0.45840    0.32420    1.000
    O27      O        0.99850    0.58240    0.11520    1.000
    O28      O        0.32560    0.49940    0.21820    1.000
    O29      O        0.74590    0.62310    0.01620    1.000
    O30      O        0.39460    0.43110    0.42190    1.000
    O31      O        0.93140    0.74930    0.08620    1.000
    O32      O        0.31110    0.56410    0.65520    1.000
    O33      O        0.43280    0.60340    0.86550    1.000
    O34      O        0.32000    0.44450    0.80510    1.000
    O35      O        0.17320    0.59060    0.80380    1.000
    O36      O        0.93100    0.64830    0.91080    1.000
    H3       H        0.30630    0.43180    0.87610    1.000
    Zn10     Zn       0.87070    0.11221    0.64186    1.000
    Zn11     Zn       0.08673    0.11499    0.95158    1.000
    Zn12     Zn       0.49661    0.95527    0.32842    1.000
    P10      P        0.59655    0.15029    0.42853    1.000
    P11      P        0.20230    0.99711    0.16161    1.000
    P12      P        0.19087    0.05413    0.71937    1.000
    O37      O        0.19530    0.09890    0.11280    1.000
    O38      O        0.35700    0.95840    0.17580    1.000
    O39      O        0.50150    0.08240    0.38480    1.000
    O40      O        0.17440    0.99940    0.28180    1.000
    O41      O        0.75410    0.12310    0.48380    1.000
    O42      O        0.10540    0.93110    0.07810    1.000
    O43      O        0.56860    0.24930    0.41380    1.000
    O44      O        0.18890    0.06410    0.84480    1.000
    O45      O        0.06720    0.10340    0.63450    1.000
    O46      O        0.18000    0.94450    0.69490    1.000
    O47      O        0.32680    0.09060    0.69620    1.000
    O48      O        0.56900    0.14830    0.58920    1.000
    H4       H        0.19370    0.93180    0.62390    1.000
