# CIF file generated by openbabel 3.1.0, see https://openbabel.org
data_I
_chemical_name_common 'image0'
_cell_length_a 25.914
_cell_length_b 25.914
_cell_length_c 6.7986
_cell_angle_alpha 90
_cell_angle_beta 90
_cell_angle_gamma 120
_space_group_name_H-M_alt 'P 1'
_space_group_name_Hall 'P 1'
loop_
    _symmetry_equiv_pos_as_xyz
    x,y,z
loop_
    _atom_site_label
    _atom_site_type_symbol
    _atom_site_fract_x
    _atom_site_fract_y
    _atom_site_fract_z
    _atom_site_occupancy
    Zn1      Zn       0.38360    0.35460    0.14360    1.000
    O1       O        0.32810    0.29660    0.37510    1.000
    O2       O        0.30010    0.22670    0.61120    1.000
    O3       O        0.35370    0.27430    0.01660    1.000
    C1       C        0.31570    0.24480    0.43390    1.000
    C2       C        0.32700    0.20640    0.28370    1.000
    C3       C        0.34310    0.22120    0.09190    1.000
    C4       C        0.35250    0.18410    0.96440    1.000
    H1       H        0.36090    0.19100    0.83500    1.000
    Zn2      Zn       0.05027    0.68793    0.47693    1.000
    O4       O        0.99477    0.62993    0.70843    1.000
    O5       O        0.96677    0.56003    0.94453    1.000
    O6       O        0.02037    0.60763    0.34993    1.000
    C5       C        0.98237    0.57813    0.76723    1.000
    C6       C        0.99367    0.53973    0.61703    1.000
    C7       C        0.00977    0.55453    0.42523    1.000
    C8       C        0.01917    0.51743    0.29773    1.000
    H2       H        0.02757    0.52433    0.16833    1.000
    Zn3      Zn       0.71693    0.02127    0.81027    1.000
    O7       O        0.66143    0.96327    0.04177    1.000
    O8       O        0.63343    0.89337    0.27787    1.000
    O9       O        0.68703    0.94097    0.68327    1.000
    C9       C        0.64903    0.91147    0.10057    1.000
    C10      C        0.66033    0.87307    0.95037    1.000
    C11      C        0.67643    0.88787    0.75857    1.000
    C12      C        0.68583    0.85077    0.63107    1.000
    H3       H        0.69423    0.85767    0.50167    1.000
    Zn4      Zn       0.64540    0.02900    0.14360    1.000
    O10      O        0.70340    0.03150    0.37510    1.000
    O11      O        0.77330    0.07340    0.61120    1.000
    O12      O        0.72570    0.07940    0.01660    1.000
    C13      C        0.75520    0.07090    0.43390    1.000
    C14      C        0.79360    0.12060    0.28370    1.000
    C15      C        0.77880    0.12190    0.09190    1.000
    C16      C        0.81590    0.16840    0.96440    1.000
    H4       H        0.80900    0.16990    0.83500    1.000
    Zn5      Zn       0.31207    0.36233    0.47693    1.000
    O13      O        0.37007    0.36483    0.70843    1.000
    O14      O        0.43997    0.40673    0.94453    1.000
    O15      O        0.39237    0.41273    0.34993    1.000
    C17      C        0.42187    0.40423    0.76723    1.000
    C18      C        0.46027    0.45393    0.61703    1.000
    C19      C        0.44547    0.45523    0.42523    1.000
    C20      C        0.48257    0.50173    0.29773    1.000
    H5       H        0.47567    0.50323    0.16833    1.000
    Zn6      Zn       0.97873    0.69567    0.81027    1.000
    O16      O        0.03673    0.69817    0.04177    1.000
    O17      O        0.10663    0.74007    0.27787    1.000
    O18      O        0.05903    0.74607    0.68327    1.000
    C21      C        0.08853    0.73757    0.10057    1.000
    C22      C        0.12693    0.78727    0.95037    1.000
    C23      C        0.11213    0.78857    0.75857    1.000
    C24      C        0.14923    0.83507    0.63107    1.000
    H6       H        0.14233    0.83657    0.50167    1.000
    Zn7      Zn       0.97100    0.61640    0.14360    1.000
    O19      O        0.96850    0.67190    0.37510    1.000
    O20      O        0.92660    0.69990    0.61120    1.000
    O21      O        0.92060    0.64630    0.01660    1.000
    C25      C        0.92910    0.68430    0.43390    1.000
    C26      C        0.87940    0.67300    0.28370    1.000
    C27      C        0.87810    0.65690    0.09190    1.000
    C28      C        0.83160    0.64750    0.96440    1.000
    H7       H        0.83010    0.63910    0.83500    1.000
    Zn8      Zn       0.63767    0.94973    0.47693    1.000
    O22      O        0.63517    0.00523    0.70843    1.000
    O23      O        0.59327    0.03323    0.94453    1.000
    O24      O        0.58727    0.97963    0.34993    1.000
    C29      C        0.59577    0.01763    0.76723    1.000
    C30      C        0.54607    0.00633    0.61703    1.000
    C31      C        0.54477    0.99023    0.42523    1.000
    C32      C        0.49827    0.98083    0.29773    1.000
    H8       H        0.49677    0.97243    0.16833    1.000
    Zn9      Zn       0.30433    0.28307    0.81027    1.000
    O25      O        0.30183    0.33857    0.04177    1.000
    O26      O        0.25993    0.36657    0.27787    1.000
    O27      O        0.25393    0.31297    0.68327    1.000
    C33      C        0.26243    0.35097    0.10057    1.000
    C34      C        0.21273    0.33967    0.95037    1.000
    C35      C        0.21143    0.32357    0.75857    1.000
    C36      C        0.16493    0.31417    0.63107    1.000
    H9       H        0.16343    0.30577    0.50167    1.000
    Zn10     Zn       0.61640    0.64540    0.85640    1.000
    O28      O        0.67190    0.70340    0.62490    1.000
    O29      O        0.69990    0.77330    0.38880    1.000
    O30      O        0.64630    0.72570    0.98340    1.000
    C37      C        0.68430    0.75520    0.56610    1.000
    C38      C        0.67300    0.79360    0.71630    1.000
    C39      C        0.65690    0.77880    0.90810    1.000
    C40      C        0.64750    0.81590    0.03560    1.000
    H10      H        0.63910    0.80900    0.16500    1.000
    Zn11     Zn       0.28307    0.97873    0.18973    1.000
    O31      O        0.33857    0.03673    0.95823    1.000
    O32      O        0.36657    0.10663    0.72213    1.000
    O33      O        0.31297    0.05903    0.31673    1.000
    C41      C        0.35097    0.08853    0.89943    1.000
    C42      C        0.33967    0.12693    0.04963    1.000
    C43      C        0.32357    0.11213    0.24143    1.000
    C44      C        0.31417    0.14923    0.36893    1.000
    H11      H        0.30577    0.14233    0.49833    1.000
    Zn12     Zn       0.94973    0.31207    0.52307    1.000
    O34      O        0.00523    0.37007    0.29157    1.000
    O35      O        0.03323    0.43997    0.05547    1.000
    O36      O        0.97963    0.39237    0.65007    1.000
    C45      C        0.01763    0.42187    0.23277    1.000
    C46      C        0.00633    0.46027    0.38297    1.000
    C47      C        0.99023    0.44547    0.57477    1.000
    C48      C        0.98083    0.48257    0.70227    1.000
    H12      H        0.97243    0.47567    0.83167    1.000
    Zn13     Zn       0.35460    0.97100    0.85640    1.000
    O37      O        0.29660    0.96850    0.62490    1.000
    O38      O        0.22670    0.92660    0.38880    1.000
    O39      O        0.27430    0.92060    0.98340    1.000
    C49      C        0.24480    0.92910    0.56610    1.000
    C50      C        0.20640    0.87940    0.71630    1.000
    C51      C        0.22120    0.87810    0.90810    1.000
    C52      C        0.18410    0.83160    0.03560    1.000
    H13      H        0.19100    0.83010    0.16500    1.000
    Zn14     Zn       0.02127    0.30433    0.18973    1.000
    O40      O        0.96327    0.30183    0.95823    1.000
    O41      O        0.89337    0.25993    0.72213    1.000
    O42      O        0.94097    0.25393    0.31673    1.000
    C53      C        0.91147    0.26243    0.89943    1.000
    C54      C        0.87307    0.21273    0.04963    1.000
    C55      C        0.88787    0.21143    0.24143    1.000
    C56      C        0.85077    0.16493    0.36893    1.000
    H14      H        0.85767    0.16343    0.49833    1.000
    Zn15     Zn       0.68793    0.63767    0.52307    1.000
    O43      O        0.62993    0.63517    0.29157    1.000
    O44      O        0.56003    0.59327    0.05547    1.000
    O45      O        0.60763    0.58727    0.65007    1.000
    C57      C        0.57813    0.59577    0.23277    1.000
    C58      C        0.53973    0.54607    0.38297    1.000
    C59      C        0.55453    0.54477    0.57477    1.000
    C60      C        0.51743    0.49827    0.70227    1.000
    H15      H        0.52433    0.49677    0.83167    1.000
    Zn16     Zn       0.02900    0.38360    0.85640    1.000
    O46      O        0.03150    0.32810    0.62490    1.000
    O47      O        0.07340    0.30010    0.38880    1.000
    O48      O        0.07940    0.35370    0.98340    1.000
    C61      C        0.07090    0.31570    0.56610    1.000
    C62      C        0.12060    0.32700    0.71630    1.000
    C63      C        0.12190    0.34310    0.90810    1.000
    C64      C        0.16840    0.35250    0.03560    1.000
    H16      H        0.16990    0.36090    0.16500    1.000
    Zn17     Zn       0.69567    0.71693    0.18973    1.000
    O49      O        0.69817    0.66143    0.95823    1.000
    O50      O        0.74007    0.63343    0.72213    1.000
    O51      O        0.74607    0.68703    0.31673    1.000
    C65      C        0.73757    0.64903    0.89943    1.000
    C66      C        0.78727    0.66033    0.04963    1.000
    C67      C        0.78857    0.67643    0.24143    1.000
    C68      C        0.83507    0.68583    0.36893    1.000
    H17      H        0.83657    0.69423    0.49833    1.000
    Zn18     Zn       0.36233    0.05027    0.52307    1.000
    O52      O        0.36483    0.99477    0.29157    1.000
    O53      O        0.40673    0.96677    0.05547    1.000
    O54      O        0.41273    0.02037    0.65007    1.000
    C69      C        0.40423    0.98237    0.23277    1.000
    C70      C        0.45393    0.99367    0.38297    1.000
    C71      C        0.45523    0.00977    0.57477    1.000
    C72      C        0.50173    0.01917    0.70227    1.000
    H18      H        0.50323    0.02757    0.83167    1.000
