# CIF file generated by openbabel 3.1.0, see https://openbabel.org
data_I
_chemical_name_common 'image0'
_cell_length_a 10.373
_cell_length_b 15.088
_cell_length_c 24.126
_cell_angle_alpha 90
_cell_angle_beta 90
_cell_angle_gamma 90
_space_group_name_H-M_alt 'P 1'
_space_group_name_Hall 'P 1'
loop_
    _symmetry_equiv_pos_as_xyz
    x,y,z
loop_
    _atom_site_label
    _atom_site_type_symbol
    _atom_site_fract_x
    _atom_site_fract_y
    _atom_site_fract_z
    _atom_site_occupancy
    Zn1      Zn       0.59298    0.50024    0.95972    1.000
    Zn2      Zn       0.81513    0.50009    0.04574    1.000
    O1       O        0.35930    0.09540    0.01120    1.000
    C1       C        0.54770    0.29660    0.15090    1.000
    H1       H        0.60460    0.33130    0.17130    1.000
    C2       C        0.53670    0.30510    0.09350    1.000
    O2       O        0.20770    0.09230    0.07730    1.000
    C3       C        0.47280    0.19080    0.40880    1.000
    C4       C        0.38950    0.18490    0.08930    1.000
    C5       C        0.46930    0.23340    0.17610    1.000
    C6       C        0.62710    0.31340    0.40790    1.000
    O3       O        0.71360    0.40420    0.08690    1.000
    C7       C        0.54590    0.25240    0.32190    1.000
    O4       O        0.56150    0.40690    0.02060    1.000
    C8       C        0.46150    0.24810    0.06240    1.000
    H2       H        0.45980    0.25240    0.02400    1.000
    N1       N        0.17170    0.52720    0.12420    1.000
    C9       C        0.31390    0.11820    0.05580    1.000
    C10      C        0.38850    0.17880    0.14610    1.000
    H3       H        0.33450    0.13870    0.16390    1.000
    C11      C        0.55090    0.25200    0.43720    1.000
    H4       H        0.55220    0.25190    0.47570    1.000
    N2       N        0.46250    0.22520    0.23820    1.000
    N3       N        0.54890    0.25800    0.26510    1.000
    C12      C        0.62780    0.31130    0.35010    1.000
    H5       H        0.68220    0.34870    0.33030    1.000
    C13      C        0.61080    0.37840    0.06500    1.000
    C14      C        0.46690    0.19260    0.35130    1.000
    H6       H        0.41150    0.15470    0.33240    1.000
    C15      C        0.11080    0.60530    0.13900    1.000
    H7       H        0.14660    0.65130    0.15960    1.000
    N4       N        0.97510    0.52220    0.09090    1.000
    C16      C        0.30480    0.50770    0.13730    1.000
    H8       H        0.35250    0.56300    0.13640    1.000
    H9       H        0.33900    0.47050    0.10800    1.000
    C17      C        0.08390    0.47830    0.09550    1.000
    C18      C        0.31700    0.50850    0.24450    1.000
    H10      H        0.22670    0.52210    0.25040    1.000
    H11      H        0.36410    0.56400    0.24410    1.000
    C19      C        0.33180    0.46440    0.19000    1.000
    H12      H        0.42040    0.44400    0.18810    1.000
    H13      H        0.27820    0.41170    0.19120    1.000
    O5       O        0.67970    0.26250    0.24470    1.000
    C20      C        0.18370    0.39240    0.01610    1.000
    H14      H        0.13860    0.43090    0.99110    1.000
    H15      H        0.18900    0.33410    0.00030    1.000
    H16      H        0.26900    0.41490    0.02230    1.000
    C21      C        0.70300    0.38100    0.43960    1.000
    O6       O        0.80270    0.40950    0.41690    1.000
    O7       O        0.65440    0.40590    0.48520    1.000
    C22      C        0.36480    0.45280    0.29200    1.000
    H17      H        0.30930    0.40120    0.29410    1.000
    H18      H        0.44990    0.43160    0.28190    1.000
    C23      C        0.11100    0.38800    0.07140    1.000
    H19      H        0.02990    0.35720    0.06580    1.000
    H20      H        0.16150    0.35400    0.09770    1.000
    C24      C        0.99330    0.60270    0.11890    1.000
    H21      H        0.93190    0.64720    0.12260    1.000
    C25      C        0.37470    0.49020    0.34930    1.000
    H22      H        0.40920    0.44480    0.37360    1.000
    H23      H        0.43590    0.53880    0.34880    1.000
    N5       N        0.25330    0.52250    0.37290    1.000
    C26      C        0.20960    0.60860    0.37140    1.000
    H24      H        0.25100    0.65670    0.35510    1.000
    C27      C        0.16410    0.47380    0.40200    1.000
    C28      C        0.18280    0.37820    0.41720    1.000
    H25      H        0.22650    0.34820    0.38700    1.000
    H26      H        0.09900    0.35060    0.42190    1.000
    N6       N        0.06840    0.52510    0.41720    1.000
    C29      C        0.09690    0.60980    0.39760    1.000
    H27      H        0.04510    0.65960    0.40230    1.000
    C30      C        0.26050    0.36590    0.47000    1.000
    H28      H        0.33510    0.40350    0.46900    1.000
    H29      H        0.28720    0.30520    0.47300    1.000
    H30      H        0.20820    0.38120    0.50140    1.000
    O8       O        0.36810    0.16780    0.25130    1.000
    C31      C        0.40220    0.12110    0.44070    1.000
    O9       O        0.44980    0.09830    0.48510    1.000
    O10      O        0.30280    0.09030    0.41730    1.000
    Zn3      Zn       0.90702    0.49976    0.45972    1.000
    Zn4      Zn       0.68487    0.49991    0.54574    1.000
    O11      O        0.14070    0.90460    0.51120    1.000
    C32      C        0.95230    0.70340    0.65090    1.000
    H31      H        0.89540    0.66870    0.67130    1.000
    C33      C        0.96330    0.69490    0.59350    1.000
    O12      O        0.29230    0.90770    0.57730    1.000
    C34      C        0.02720    0.80920    0.90880    1.000
    C35      C        0.11050    0.81510    0.58930    1.000
    C36      C        0.03070    0.76660    0.67610    1.000
    C37      C        0.87290    0.68660    0.90790    1.000
    O13      O        0.78640    0.59580    0.58690    1.000
    C38      C        0.95410    0.74760    0.82190    1.000
    O14      O        0.93850    0.59310    0.52060    1.000
    C39      C        0.03850    0.75190    0.56240    1.000
    H32      H        0.04020    0.74760    0.52400    1.000
    N7       N        0.32830    0.47280    0.62420    1.000
    C40      C        0.18610    0.88180    0.55580    1.000
    C41      C        0.11150    0.82120    0.64610    1.000
    H33      H        0.16550    0.86130    0.66390    1.000
    C42      C        0.94910    0.74800    0.93720    1.000
    H34      H        0.94780    0.74810    0.97570    1.000
    N8       N        0.03750    0.77480    0.73820    1.000
    N9       N        0.95110    0.74200    0.76510    1.000
    C43      C        0.87220    0.68870    0.85010    1.000
    H35      H        0.81780    0.65130    0.83030    1.000
    C44      C        0.88920    0.62160    0.56500    1.000
    C45      C        0.03310    0.80740    0.85130    1.000
    H36      H        0.08850    0.84530    0.83240    1.000
    C46      C        0.38920    0.39470    0.63900    1.000
    H37      H        0.35340    0.34870    0.65960    1.000
    N10      N        0.52490    0.47780    0.59090    1.000
    C47      C        0.19520    0.49230    0.63730    1.000
    H38      H        0.14750    0.43700    0.63640    1.000
    H39      H        0.16100    0.52950    0.60800    1.000
    C48      C        0.41610    0.52170    0.59550    1.000
    C49      C        0.18300    0.49150    0.74450    1.000
    H40      H        0.27330    0.47790    0.75040    1.000
    H41      H        0.13590    0.43600    0.74410    1.000
    C50      C        0.16820    0.53560    0.69000    1.000
    H42      H        0.07960    0.55600    0.68810    1.000
    H43      H        0.22180    0.58830    0.69120    1.000
    O15      O        0.82030    0.73750    0.74470    1.000
    C51      C        0.31630    0.60760    0.51610    1.000
    H44      H        0.36140    0.56910    0.49110    1.000
    H45      H        0.31100    0.66590    0.50030    1.000
    H46      H        0.23100    0.58510    0.52230    1.000
    C52      C        0.79700    0.61900    0.93960    1.000
    O16      O        0.69730    0.59050    0.91690    1.000
    O17      O        0.84560    0.59410    0.98520    1.000
    C53      C        0.13520    0.54720    0.79200    1.000
    H47      H        0.19070    0.59880    0.79410    1.000
    H48      H        0.05010    0.56840    0.78190    1.000
    C54      C        0.38900    0.61200    0.57140    1.000
    H49      H        0.47010    0.64280    0.56580    1.000
    H50      H        0.33850    0.64600    0.59770    1.000
    C55      C        0.50670    0.39730    0.61890    1.000
    H51      H        0.56810    0.35280    0.62260    1.000
    C56      C        0.12530    0.50980    0.84930    1.000
    H52      H        0.09080    0.55520    0.87360    1.000
    H53      H        0.06410    0.46120    0.84880    1.000
    N11      N        0.24670    0.47750    0.87290    1.000
    C57      C        0.29040    0.39140    0.87140    1.000
    H54      H        0.24900    0.34330    0.85510    1.000
    C58      C        0.33590    0.52620    0.90200    1.000
    C59      C        0.31720    0.62180    0.91720    1.000
    H55      H        0.27350    0.65180    0.88700    1.000
    H56      H        0.40100    0.64940    0.92190    1.000
    N12      N        0.43160    0.47490    0.91720    1.000
    C60      C        0.40310    0.39020    0.89760    1.000
    H57      H        0.45490    0.34040    0.90230    1.000
    C61      C        0.23950    0.63410    0.97000    1.000
    H58      H        0.16490    0.59650    0.96900    1.000
    H59      H        0.21280    0.69480    0.97300    1.000
    H60      H        0.29180    0.61880    0.00140    1.000
    O18      O        0.13190    0.83220    0.75130    1.000
    C62      C        0.09780    0.87890    0.94070    1.000
    O19      O        0.05020    0.90170    0.98510    1.000
    O20      O        0.19720    0.90970    0.91730    1.000
    Zn5      Zn       0.40702    0.00024    0.54028    1.000
    Zn6      Zn       0.18487    0.00009    0.45426    1.000
    O21      O        0.64070    0.59540    0.48880    1.000
    C63      C        0.45230    0.79660    0.34910    1.000
    H61      H        0.39540    0.83130    0.32870    1.000
    C64      C        0.46330    0.80510    0.40650    1.000
    O22      O        0.79230    0.59230    0.42270    1.000
    C65      C        0.52720    0.69080    0.09120    1.000
    C66      C        0.61050    0.68490    0.41070    1.000
    C67      C        0.53070    0.73340    0.32390    1.000
    C68      C        0.37290    0.81340    0.09210    1.000
    O23      O        0.28640    0.90420    0.41310    1.000
    C69      C        0.45410    0.75240    0.17810    1.000
    O24      O        0.43850    0.90690    0.47940    1.000
    C70      C        0.53850    0.74810    0.43760    1.000
    H62      H        0.54020    0.75240    0.47600    1.000
    N13      N        0.82830    0.02720    0.37580    1.000
    C71      C        0.68610    0.61820    0.44420    1.000
    C72      C        0.61150    0.67880    0.35390    1.000
    H63      H        0.66550    0.63870    0.33610    1.000
    C73      C        0.44910    0.75200    0.06280    1.000
    H64      H        0.44780    0.75190    0.02430    1.000
    N14      N        0.53750    0.72520    0.26180    1.000
    N15      N        0.45110    0.75800    0.23490    1.000
    C74      C        0.37220    0.81130    0.14990    1.000
    H65      H        0.31780    0.84870    0.16970    1.000
    C75      C        0.38920    0.87840    0.43500    1.000
    C76      C        0.53310    0.69260    0.14870    1.000
    H66      H        0.58850    0.65470    0.16760    1.000
    C77      C        0.88920    0.10530    0.36100    1.000
    H67      H        0.85340    0.15130    0.34040    1.000
    N16      N        0.02490    0.02220    0.40910    1.000
    C78      C        0.69520    0.00770    0.36270    1.000
    H68      H        0.64750    0.06300    0.36360    1.000
    H69      H        0.66100    0.97050    0.39200    1.000
    C79      C        0.91610    0.97830    0.40450    1.000
    C80      C        0.68300    0.00850    0.25550    1.000
    H70      H        0.77330    0.02210    0.24960    1.000
    H71      H        0.63590    0.06400    0.25590    1.000
    C81      C        0.66820    0.96440    0.31000    1.000
    H72      H        0.57960    0.94400    0.31190    1.000
    H73      H        0.72180    0.91170    0.30880    1.000
    O25      O        0.32030    0.76250    0.25530    1.000
    C82      C        0.81630    0.89240    0.48390    1.000
    H74      H        0.86140    0.93090    0.50890    1.000
    H75      H        0.81100    0.83410    0.49970    1.000
    H76      H        0.73100    0.91490    0.47770    1.000
    C83      C        0.29700    0.88100    0.06040    1.000
    O26      O        0.19730    0.90950    0.08310    1.000
    O27      O        0.34560    0.90590    0.01480    1.000
    C84      C        0.63520    0.95280    0.20800    1.000
    H77      H        0.69070    0.90120    0.20590    1.000
    H78      H        0.55010    0.93160    0.21810    1.000
    C85      C        0.88900    0.88800    0.42860    1.000
    H79      H        0.97010    0.85720    0.43420    1.000
    H80      H        0.83850    0.85400    0.40230    1.000
    C86      C        0.00670    0.10270    0.38110    1.000
    H81      H        0.06810    0.14720    0.37740    1.000
    C87      C        0.62530    0.99020    0.15070    1.000
    H82      H        0.59080    0.94480    0.12640    1.000
    H83      H        0.56410    0.03880    0.15120    1.000
    N17      N        0.74670    0.02250    0.12710    1.000
    C88      C        0.79040    0.10860    0.12860    1.000
    H84      H        0.74900    0.15670    0.14490    1.000
    C89      C        0.83590    0.97380    0.09800    1.000
    C90      C        0.81720    0.87820    0.08280    1.000
    H85      H        0.77350    0.84820    0.11300    1.000
    H86      H        0.90100    0.85060    0.07810    1.000
    N18      N        0.93160    0.02510    0.08280    1.000
    C91      C        0.90310    0.10980    0.10240    1.000
    H87      H        0.95490    0.15960    0.09770    1.000
    C92      C        0.73950    0.86590    0.03000    1.000
    H88      H        0.66490    0.90350    0.03100    1.000
    H89      H        0.71280    0.80520    0.02700    1.000
    H90      H        0.79180    0.88120    0.99860    1.000
    O28      O        0.63190    0.66780    0.24870    1.000
    C93      C        0.59780    0.62110    0.05930    1.000
    O29      O        0.55020    0.59830    0.01490    1.000
    O30      O        0.69720    0.59030    0.08270    1.000
    Zn7      Zn       0.09298    0.99976    0.04028    1.000
    Zn8      Zn       0.31513    0.99991    0.95426    1.000
    O31      O        0.85930    0.40460    0.98880    1.000
    C94      C        0.04770    0.20340    0.84910    1.000
    H91      H        0.10460    0.16870    0.82870    1.000
    C95      C        0.03670    0.19490    0.90650    1.000
    O32      O        0.70770    0.40770    0.92270    1.000
    C96      C        0.97280    0.30920    0.59120    1.000
    C97      C        0.88950    0.31510    0.91070    1.000
    C98      C        0.96930    0.26660    0.82390    1.000
    C99      C        0.12710    0.18660    0.59210    1.000
    O33      O        0.21360    0.09580    0.91310    1.000
    C100     C        0.04590    0.24760    0.67810    1.000
    O34      O        0.06150    0.09310    0.97940    1.000
    C101     C        0.96150    0.25190    0.93760    1.000
    H92      H        0.95980    0.24760    0.97600    1.000
    N19      N        0.67170    0.97280    0.87580    1.000
    C102     C        0.81390    0.38180    0.94420    1.000
    C103     C        0.88850    0.32120    0.85390    1.000
    H93      H        0.83450    0.36130    0.83610    1.000
    C104     C        0.05090    0.24800    0.56280    1.000
    H94      H        0.05220    0.24810    0.52430    1.000
    N20      N        0.96250    0.27480    0.76180    1.000
    N21      N        0.04890    0.24200    0.73490    1.000
    C105     C        0.12780    0.18870    0.64990    1.000
    H95      H        0.18220    0.15130    0.66970    1.000
    C106     C        0.11080    0.12160    0.93500    1.000
    C107     C        0.96690    0.30740    0.64870    1.000
    H96      H        0.91150    0.34530    0.66760    1.000
    C108     C        0.61080    0.89470    0.86100    1.000
    H97      H        0.64660    0.84870    0.84040    1.000
    N22      N        0.47510    0.97780    0.90910    1.000
    C109     C        0.80480    0.99230    0.86270    1.000
    H98      H        0.85250    0.93700    0.86360    1.000
    H99      H        0.83900    0.02950    0.89200    1.000
    C110     C        0.58390    0.02170    0.90450    1.000
    C111     C        0.81700    0.99150    0.75550    1.000
    H100     H        0.72670    0.97790    0.74960    1.000
    H101     H        0.86410    0.93600    0.75590    1.000
    C112     C        0.83180    0.03560    0.81000    1.000
    H102     H        0.92040    0.05600    0.81190    1.000
    H103     H        0.77820    0.08830    0.80880    1.000
    O35      O        0.17970    0.23750    0.75530    1.000
    C113     C        0.68370    0.10760    0.98390    1.000
    H104     H        0.63860    0.06910    0.00890    1.000
    H105     H        0.68900    0.16590    0.99970    1.000
    H106     H        0.76900    0.08510    0.97770    1.000
    C114     C        0.20300    0.11900    0.56040    1.000
    O36      O        0.30270    0.09050    0.58310    1.000
    O37      O        0.15440    0.09410    0.51480    1.000
    C115     C        0.86480    0.04720    0.70800    1.000
    H107     H        0.80930    0.09880    0.70590    1.000
    H108     H        0.94990    0.06840    0.71810    1.000
    C116     C        0.61100    0.11200    0.92860    1.000
    H109     H        0.52990    0.14280    0.93420    1.000
    H110     H        0.66150    0.14600    0.90230    1.000
    C117     C        0.49330    0.89730    0.88110    1.000
    H111     H        0.43190    0.85280    0.87740    1.000
    C118     C        0.87470    0.00980    0.65070    1.000
    H112     H        0.90920    0.05520    0.62640    1.000
    H113     H        0.93590    0.96120    0.65120    1.000
    N23      N        0.75330    0.97750    0.62710    1.000
    C119     C        0.70960    0.89140    0.62860    1.000
    H114     H        0.75100    0.84330    0.64490    1.000
    C120     C        0.66410    0.02620    0.59800    1.000
    C121     C        0.68280    0.12180    0.58280    1.000
    H115     H        0.72650    0.15180    0.61300    1.000
    H116     H        0.59900    0.14940    0.57810    1.000
    N24      N        0.56840    0.97490    0.58280    1.000
    C122     C        0.59690    0.89020    0.60240    1.000
    H117     H        0.54510    0.84040    0.59770    1.000
    C123     C        0.76050    0.13410    0.53000    1.000
    H118     H        0.83510    0.09650    0.53100    1.000
    H119     H        0.78720    0.19480    0.52700    1.000
    H120     H        0.70820    0.11880    0.49860    1.000
    O38      O        0.86810    0.33220    0.74870    1.000
    C124     C        0.90220    0.37890    0.55930    1.000
    O39      O        0.94980    0.40170    0.51490    1.000
    O40      O        0.80280    0.40970    0.58270    1.000
