# CIF file generated by openbabel 3.1.0, see https://openbabel.org
data_I
_chemical_name_common 'image0'
_cell_length_a 11.129
_cell_length_b 13.988
_cell_length_c 16.141
_cell_angle_alpha 82.895
_cell_angle_beta 88.392
_cell_angle_gamma 66.718
_space_group_name_H-M_alt 'P 1'
_space_group_name_Hall 'P 1'
loop_
    _symmetry_equiv_pos_as_xyz
    x,y,z
loop_
    _atom_site_label
    _atom_site_type_symbol
    _atom_site_fract_x
    _atom_site_fract_y
    _atom_site_fract_z
    _atom_site_occupancy
    Zn1      Zn       0.98742    0.48622    0.76027    1.000
    Zn2      Zn       0.22621    0.86977    0.08299    1.000
    C1       C        0.22570    0.31200    0.68520    1.000
    H1       H        0.24150    0.25890    0.72940    1.000
    C2       C        0.29580    0.30430    0.61310    1.000
    H2       H        0.36660    0.24590    0.59930    1.000
    C3       C        0.13810    0.46370    0.60870    1.000
    C4       C        0.04450    0.57060    0.58640    1.000
    C5       C        0.03460    0.63440    0.51150    1.000
    H3       H        0.09410    0.61050    0.46950    1.000
    C6       C        0.93740    0.73200    0.50010    1.000
    H4       H        0.93010    0.77490    0.45000    1.000
    C7       C        0.84900    0.76790    0.56290    1.000
    H5       H        0.78220    0.83450    0.55620    1.000
    C8       C        0.86400    0.70100    0.63530    1.000
    H6       H        0.80560    0.72400    0.67800    1.000
    C9       C        0.29670    0.42100    0.48480    1.000
    H7       H        0.22700    0.47150    0.44810    1.000
    H8       H        0.33430    0.35690    0.45900    1.000
    C10      C        0.40130    0.46350    0.49370    1.000
    C11      C        0.38310    0.56190    0.46010    1.000
    H9       H        0.30420    0.60490    0.43280    1.000
    C12      C        0.51920    0.40060    0.53420    1.000
    H10      H        0.53320    0.33280    0.55770    1.000
    C13      C        0.40400    0.58430    0.95730    1.000
    H11      H        0.33920    0.64190    0.92740    1.000
    C14      C        0.53410    0.56780    0.94440    1.000
    H12      H        0.55550    0.61450    0.90700    1.000
    C15      C        0.36790    0.51830    0.01260    1.000
    C16      C        0.22470    0.54190    0.02990    1.000
    H13      H        0.21790    0.48090    0.06200    1.000
    H14      H        0.19110    0.59940    0.06350    1.000
    C17      C        0.08090    0.67150    0.91650    1.000
    H15      H        0.08070    0.73140    0.93590    1.000
    C18      C        0.02020    0.66760    0.84720    1.000
    H16      H        0.97180    0.72520    0.80950    1.000
    C19      C        0.11630    0.50700    0.90650    1.000
    C20      C        0.14470    0.39460    0.92010    1.000
    C21      C        0.23110    0.32030    0.97960    1.000
    H17      H        0.28190    0.33930    0.01370    1.000
    C22      C        0.24030    0.21950    0.98730    1.000
    H18      H        0.29970    0.16910    0.02570    1.000
    C23      C        0.16350    0.19160    0.93920    1.000
    H19      H        0.16520    0.12410    0.94650    1.000
    C24      C        0.08230    0.26830    0.87890    1.000
    H20      H        0.03180    0.24990    0.84410    1.000
    C25      C        0.23130    0.87990    0.90340    1.000
    C26      C        0.96310    0.99830    0.83990    1.000
    C27      C        0.26990    0.79170    0.77770    1.000
    H21      H        0.35560    0.75710    0.79790    1.000
    C28      C        0.18090    0.86300    0.82130    1.000
    C29      C        0.05680    0.91510    0.79260    1.000
    C30      C        0.02130    0.89570    0.71740    1.000
    H22      H        0.93580    0.93260    0.69730    1.000
    C31      C        0.10960    0.82240    0.67050    1.000
    H23      H        0.08490    0.80990    0.61970    1.000
    C32      C        0.23410    0.76960    0.70260    1.000
    C33      C        0.40530    0.60250    0.70040    1.000
    C34      C        0.53640    0.57910    0.70620    1.000
    H24      H        0.56830    0.62940    0.68540    1.000
    C35      C        0.62290    0.48120    0.74270    1.000
    C36      C        0.76520    0.46050    0.74130    1.000
    C37      C        0.57320    0.40700    0.77500    1.000
    C38      C        0.65940    0.30190    0.82040    1.000
    C39      C        0.43670    0.43580    0.76990    1.000
    H25      H        0.40220    0.38800    0.79260    1.000
    C40      C        0.35430    0.53100    0.73300    1.000
    H26      H        0.26480    0.54780    0.72970    1.000
    N1       N        0.24060    0.39920    0.56590    1.000
    N2       N        0.13010    0.40940    0.68150    1.000
    N3       N        0.95910    0.60390    0.64780    1.000
    N4       N        0.04030    0.56610    0.84040    1.000
    N5       N        0.14360    0.56950    0.95360    1.000
    N6       N        0.07400    0.36610    0.86880    1.000
    O1       O        0.18160    0.85810    0.96820    1.000
    O2       O        0.35970    0.88000    0.90590    1.000
    O3       O        0.25920    0.95040    0.89200    1.000
    O4       O        0.99220    0.06250    0.86980    1.000
    O5       O        0.87380    0.99960    0.86490    1.000
    O6       O        0.75500    0.28650    0.85650    1.000
    O7       O        0.61550    0.24240    0.85540    1.000
    O8       O        0.64270    0.21680    0.77440    1.000
    O9       O        0.84350    0.39030    0.70420    1.000
    O10      O        0.79700    0.52510    0.77460    1.000
    O11      O        0.32430    0.69900    0.65590    1.000
    Zn3      Zn       0.01258    0.51378    0.23973    1.000
    Zn4      Zn       0.77379    0.13023    0.91701    1.000
    C41      C        0.77430    0.68800    0.31480    1.000
    H27      H        0.75850    0.74110    0.27060    1.000
    C42      C        0.70420    0.69570    0.38690    1.000
    H28      H        0.63340    0.75410    0.40070    1.000
    C43      C        0.86190    0.53630    0.39130    1.000
    C44      C        0.95550    0.42940    0.41360    1.000
    C45      C        0.96540    0.36560    0.48850    1.000
    H29      H        0.90590    0.38950    0.53050    1.000
    C46      C        0.06260    0.26800    0.49990    1.000
    H30      H        0.06990    0.22510    0.55000    1.000
    C47      C        0.15100    0.23210    0.43710    1.000
    H31      H        0.21780    0.16550    0.44380    1.000
    C48      C        0.13600    0.29900    0.36470    1.000
    H32      H        0.19440    0.27600    0.32200    1.000
    C49      C        0.70330    0.57900    0.51520    1.000
    H33      H        0.77300    0.52850    0.55190    1.000
    H34      H        0.66570    0.64310    0.54100    1.000
    C50      C        0.59870    0.53650    0.50630    1.000
    C51      C        0.61690    0.43810    0.53990    1.000
    H35      H        0.69580    0.39510    0.56720    1.000
    C52      C        0.48080    0.59940    0.46580    1.000
    H36      H        0.46680    0.66720    0.44230    1.000
    C53      C        0.59600    0.41570    0.04270    1.000
    H37      H        0.66080    0.35810    0.07260    1.000
    C54      C        0.46590    0.43220    0.05560    1.000
    H38      H        0.44450    0.38550    0.09300    1.000
    C55      C        0.63210    0.48170    0.98740    1.000
    C56      C        0.77530    0.45810    0.97010    1.000
    H39      H        0.78210    0.51910    0.93800    1.000
    H40      H        0.80890    0.40060    0.93650    1.000
    C57      C        0.91910    0.32850    0.08350    1.000
    H41      H        0.91930    0.26860    0.06410    1.000
    C58      C        0.97980    0.33240    0.15280    1.000
    H42      H        0.02820    0.27480    0.19050    1.000
    C59      C        0.88370    0.49300    0.09350    1.000
    C60      C        0.85530    0.60540    0.07990    1.000
    C61      C        0.76890    0.67970    0.02040    1.000
    H43      H        0.71810    0.66070    0.98630    1.000
    C62      C        0.75970    0.78050    0.01270    1.000
    H44      H        0.70030    0.83090    0.97430    1.000
    C63      C        0.83650    0.80840    0.06080    1.000
    H45      H        0.83480    0.87590    0.05350    1.000
    C64      C        0.91770    0.73170    0.12110    1.000
    H46      H        0.96820    0.75010    0.15590    1.000
    C65      C        0.76870    0.12010    0.09660    1.000
    C66      C        0.03690    0.00170    0.16010    1.000
    C67      C        0.73010    0.20830    0.22230    1.000
    H47      H        0.64440    0.24290    0.20210    1.000
    C68      C        0.81910    0.13700    0.17870    1.000
    C69      C        0.94320    0.08490    0.20740    1.000
    C70      C        0.97870    0.10430    0.28260    1.000
    H48      H        0.06420    0.06740    0.30270    1.000
    C71      C        0.89040    0.17760    0.32950    1.000
    H49      H        0.91510    0.19010    0.38030    1.000
    C72      C        0.76590    0.23040    0.29740    1.000
    C73      C        0.59470    0.39750    0.29960    1.000
    C74      C        0.46360    0.42090    0.29380    1.000
    H50      H        0.43170    0.37060    0.31460    1.000
    C75      C        0.37710    0.51880    0.25730    1.000
    C76      C        0.23480    0.53950    0.25870    1.000
    C77      C        0.42680    0.59300    0.22500    1.000
    C78      C        0.34060    0.69810    0.17960    1.000
    C79      C        0.56330    0.56420    0.23010    1.000
    H51      H        0.59780    0.61200    0.20740    1.000
    C80      C        0.64570    0.46900    0.26700    1.000
    H52      H        0.73520    0.45220    0.27030    1.000
    N7       N        0.75940    0.60080    0.43410    1.000
    N8       N        0.86990    0.59060    0.31850    1.000
    N9       N        0.04090    0.39610    0.35220    1.000
    N10      N        0.95970    0.43390    0.15960    1.000
    N11      N        0.85640    0.43050    0.04640    1.000
    N12      N        0.92600    0.63390    0.13120    1.000
    O12      O        0.81840    0.14190    0.03180    1.000
    O13      O        0.64030    0.12000    0.09410    1.000
    O14      O        0.74080    0.04960    0.10800    1.000
    O15      O        0.00780    0.93750    0.13020    1.000
    O16      O        0.12620    0.00040    0.13510    1.000
    O17      O        0.24500    0.71350    0.14350    1.000
    O18      O        0.38450    0.75760    0.14460    1.000
    O19      O        0.35730    0.78320    0.22560    1.000
    O20      O        0.15650    0.60970    0.29580    1.000
    O21      O        0.20300    0.47490    0.22540    1.000
    O22      O        0.67570    0.30100    0.34410    1.000
