# CIF file generated by openbabel 3.1.0, see https://openbabel.org
data_I
_chemical_name_common 'image0'
_cell_length_a 27.286
_cell_length_b 13.6997
_cell_length_c 45.829
_cell_angle_alpha 90
_cell_angle_beta 90
_cell_angle_gamma 90
_space_group_name_H-M_alt 'P 1'
_space_group_name_Hall 'P 1'
loop_
    _symmetry_equiv_pos_as_xyz
    x,y,z
loop_
    _atom_site_label
    _atom_site_type_symbol
    _atom_site_fract_x
    _atom_site_fract_y
    _atom_site_fract_z
    _atom_site_occupancy
    Zn1      Zn       0.24633    0.84340    0.31144    1.000
    Zn2      Zn       0.03019    0.64159    0.40931    1.000
    Zn3      Zn       0.04882    0.86030    0.57199    1.000
    I1       I        0.33727    0.82887    0.32277    1.000
    I2       I        0.19474    0.68953    0.30406    1.000
    I3       I        0.07770    0.72549    0.36902    1.000
    I4       I        0.01494    0.72111    0.45869    1.000
    I5       I        0.04889    0.67661    0.56424    1.000
    I6       I        0.98232    0.95544    0.59831    1.000
    C1       C        0.07250    0.45030    0.39393    1.000
    H1       H        0.06810    0.47510    0.37480    1.000
    C2       C        0.08990    0.35690    0.39746    1.000
    H2       H        0.09700    0.31760    0.38090    1.000
    C3       C        0.06890    0.47370    0.44364    1.000
    H3       H        0.06260    0.51520    0.45980    1.000
    C4       C        0.08560    0.37960    0.44863    1.000
    H4       H        0.08910    0.35600    0.46800    1.000
    C5       C        0.09700    0.32050    0.42520    1.000
    C6       C        0.11320    0.21850    0.43015    1.000
    C7       C        0.05210    0.02270    0.52865    1.000
    H5       H        0.03250    0.05490    0.54280    1.000
    C8       C        0.06730    0.07360    0.50472    1.000
    H6       H        0.05810    0.14000    0.50240    1.000
    C9       C        0.09050    0.88370    0.51220    1.000
    H7       H        0.09780    0.81640    0.51460    1.000
    C10      C        0.10770    0.93110    0.48759    1.000
    H8       H        0.12710    0.89740    0.47360    1.000
    C11      C        0.09610    0.02880    0.48373    1.000
    C12      C        0.11270    0.08200    0.45729    1.000
    C13      C        0.19080    0.87610    0.36574    1.000
    H9       H        0.18960    0.80680    0.36570    1.000
    C14      C        0.17030    0.92590    0.38881    1.000
    H10      H        0.15610    0.89110    0.40460    1.000
    C15      C        0.21260    0.01970    0.34345    1.000
    H11      H        0.22770    0.05300    0.32760    1.000
    C16      C        0.19190    0.07390    0.36555    1.000
    H12      H        0.19250    0.14320    0.36480    1.000
    C17      C        0.17040    0.02660    0.38878    1.000
    C18      C        0.14690    0.08090    0.41279    1.000
    C19      C        0.27710    0.95530    0.25895    1.000
    H13      H        0.30850    0.95330    0.26790    1.000
    C20      C        0.27340    0.99030    0.23072    1.000
    H14      H        0.30180    0.01080    0.22040    1.000
    C21      C        0.19400    0.93290    0.26227    1.000
    H15      H        0.16610    0.91440    0.27330    1.000
    C22      C        0.18730    0.96800    0.23412    1.000
    H16      H        0.15520    0.97350    0.22620    1.000
    C23      C        0.22760    0.99480    0.21788    1.000
    C24      C        0.22250    0.02560    0.18712    1.000
    C25      C        0.04050    0.08910    0.13783    1.000
    H17      H        0.01180    0.09110    0.14960    1.000
    C26      C        0.08520    0.07140    0.15126    1.000
    H18      H        0.08690    0.05940    0.17170    1.000
    C27      C        0.07640    0.10000    0.09298    1.000
    H19      H        0.07330    0.10780    0.07250    1.000
    C28      C        0.12250    0.08580    0.10462    1.000
    H20      H        0.15050    0.08580    0.09230    1.000
    C29      C        0.12740    0.07150    0.13435    1.000
    C30      C        0.17590    0.05920    0.14802    1.000
    C31      C        0.34340    0.11700    0.08229    1.000
    H21      H        0.34150    0.13570    0.06240    1.000
    C32      C        0.30060    0.10120    0.09723    1.000
    H22      H        0.26990    0.10790    0.08770    1.000
    C33      C        0.38970    0.08050    0.12265    1.000
    H23      H        0.42090    0.07170    0.13140    1.000
    C34      C        0.34860    0.06520    0.13932    1.000
    H24      H        0.35130    0.04790    0.15930    1.000
    C35      C        0.30300    0.07550    0.12630    1.000
    C36      C        0.25780    0.06070    0.14382    1.000
    N1       N        0.06156    0.50750    0.41682    1.000
    N2       N        0.06390    0.92860    0.53280    1.000
    N3       N        0.21240    0.92240    0.34329    1.000
    N4       N        0.10110    0.17690    0.45537    1.000
    N5       N        0.13650    0.03130    0.43727    1.000
    N6       N        0.13583    0.17410    0.40826    1.000
    N7       N        0.23825    0.92410    0.27432    1.000
    N8       N        0.03584    0.10330    0.10947    1.000
    N9       N        0.38773    0.10760    0.09434    1.000
    N10      N        0.17727    0.03550    0.17627    1.000
    N11      N        0.21491    0.07180    0.13059    1.000
    N12      N        0.26412    0.03790    0.17191    1.000
    Zn4      Zn       0.25367    0.15660    0.81144    1.000
    Zn5      Zn       0.46981    0.35841    0.90931    1.000
    Zn6      Zn       0.45118    0.13970    0.07199    1.000
    I7       I        0.16273    0.17113    0.82277    1.000
    I8       I        0.30526    0.31047    0.80406    1.000
    I9       I        0.42230    0.27451    0.86902    1.000
    I10      I        0.48506    0.27889    0.95869    1.000
    I11      I        0.45111    0.32339    0.06424    1.000
    I12      I        0.51768    0.04456    0.09831    1.000
    C37      C        0.42750    0.54970    0.89393    1.000
    H25      H        0.43190    0.52490    0.87480    1.000
    C38      C        0.41010    0.64310    0.89746    1.000
    H26      H        0.40300    0.68240    0.88090    1.000
    C39      C        0.43110    0.52630    0.94364    1.000
    H27      H        0.43740    0.48480    0.95980    1.000
    C40      C        0.41440    0.62040    0.94863    1.000
    H28      H        0.41090    0.64400    0.96800    1.000
    C41      C        0.40300    0.67950    0.92520    1.000
    C42      C        0.38680    0.78150    0.93015    1.000
    C43      C        0.44790    0.97730    0.02865    1.000
    H29      H        0.46750    0.94510    0.04280    1.000
    C44      C        0.43270    0.92640    0.00472    1.000
    H30      H        0.44190    0.86000    0.00240    1.000
    C45      C        0.40950    0.11630    0.01220    1.000
    H31      H        0.40220    0.18360    0.01460    1.000
    C46      C        0.39230    0.06890    0.98759    1.000
    H32      H        0.37290    0.10260    0.97360    1.000
    C47      C        0.40390    0.97120    0.98373    1.000
    C48      C        0.38730    0.91800    0.95729    1.000
    C49      C        0.30920    0.12390    0.86574    1.000
    H33      H        0.31040    0.19320    0.86570    1.000
    C50      C        0.32970    0.07410    0.88881    1.000
    H34      H        0.34390    0.10890    0.90460    1.000
    C51      C        0.28740    0.98030    0.84345    1.000
    H35      H        0.27230    0.94700    0.82760    1.000
    C52      C        0.30810    0.92610    0.86555    1.000
    H36      H        0.30750    0.85680    0.86480    1.000
    C53      C        0.32960    0.97340    0.88878    1.000
    C54      C        0.35310    0.91910    0.91279    1.000
    C55      C        0.22290    0.04470    0.75895    1.000
    H37      H        0.19150    0.04670    0.76790    1.000
    C56      C        0.22660    0.00970    0.73072    1.000
    H38      H        0.19820    0.98920    0.72040    1.000
    C57      C        0.30600    0.06710    0.76227    1.000
    H39      H        0.33390    0.08560    0.77330    1.000
    C58      C        0.31270    0.03200    0.73412    1.000
    H40      H        0.34480    0.02650    0.72620    1.000
    C59      C        0.27240    0.00520    0.71788    1.000
    C60      C        0.27750    0.97440    0.68712    1.000
    C61      C        0.45950    0.91090    0.63783    1.000
    H41      H        0.48820    0.90890    0.64960    1.000
    C62      C        0.41480    0.92860    0.65126    1.000
    H42      H        0.41310    0.94060    0.67170    1.000
    C63      C        0.42360    0.90000    0.59298    1.000
    H43      H        0.42670    0.89220    0.57250    1.000
    C64      C        0.37750    0.91420    0.60462    1.000
    H44      H        0.34950    0.91420    0.59230    1.000
    C65      C        0.37260    0.92850    0.63435    1.000
    C66      C        0.32410    0.94080    0.64802    1.000
    C67      C        0.15660    0.88300    0.58229    1.000
    H45      H        0.15850    0.86430    0.56240    1.000
    C68      C        0.19940    0.89880    0.59723    1.000
    H46      H        0.23010    0.89210    0.58770    1.000
    C69      C        0.11030    0.91950    0.62265    1.000
    H47      H        0.07910    0.92830    0.63140    1.000
    C70      C        0.15140    0.93480    0.63932    1.000
    H48      H        0.14870    0.95210    0.65930    1.000
    C71      C        0.19700    0.92450    0.62630    1.000
    C72      C        0.24220    0.93930    0.64382    1.000
    N13      N        0.43844    0.49250    0.91682    1.000
    N14      N        0.43610    0.07140    0.03280    1.000
    N15      N        0.28760    0.07760    0.84329    1.000
    N16      N        0.39890    0.82310    0.95537    1.000
    N17      N        0.36350    0.96870    0.93727    1.000
    N18      N        0.36417    0.82590    0.90826    1.000
    N19      N        0.26175    0.07590    0.77432    1.000
    N20      N        0.46416    0.89670    0.60947    1.000
    N21      N        0.11227    0.89240    0.59434    1.000
    N22      N        0.32273    0.96450    0.67627    1.000
    N23      N        0.28509    0.92820    0.63059    1.000
    N24      N        0.23588    0.96210    0.67191    1.000
    Zn7      Zn       0.75367    0.34340    0.18856    1.000
    Zn8      Zn       0.96981    0.14159    0.09069    1.000
    Zn9      Zn       0.95118    0.36030    0.92801    1.000
    I13      I        0.66273    0.32887    0.17723    1.000
    I14      I        0.80526    0.18953    0.19594    1.000
    I15      I        0.92230    0.22549    0.13098    1.000
    I16      I        0.98506    0.22111    0.04131    1.000
    I17      I        0.95111    0.17661    0.93576    1.000
    I18      I        0.01768    0.45544    0.90169    1.000
    C73      C        0.92750    0.95030    0.10607    1.000
    H49      H        0.93190    0.97510    0.12520    1.000
    C74      C        0.91010    0.85690    0.10254    1.000
    H50      H        0.90300    0.81760    0.11910    1.000
    C75      C        0.93110    0.97370    0.05636    1.000
    H51      H        0.93740    0.01520    0.04020    1.000
    C76      C        0.91440    0.87960    0.05137    1.000
    H52      H        0.91090    0.85600    0.03200    1.000
    C77      C        0.90300    0.82050    0.07480    1.000
    C78      C        0.88680    0.71850    0.06985    1.000
    C79      C        0.94790    0.52270    0.97135    1.000
    H53      H        0.96750    0.55490    0.95720    1.000
    C80      C        0.93270    0.57360    0.99528    1.000
    H54      H        0.94190    0.64000    0.99760    1.000
    C81      C        0.90950    0.38370    0.98780    1.000
    H55      H        0.90220    0.31640    0.98540    1.000
    C82      C        0.89230    0.43110    0.01241    1.000
    H56      H        0.87290    0.39740    0.02640    1.000
    C83      C        0.90390    0.52880    0.01627    1.000
    C84      C        0.88730    0.58200    0.04271    1.000
    C85      C        0.80920    0.37610    0.13426    1.000
    H57      H        0.81040    0.30680    0.13430    1.000
    C86      C        0.82970    0.42590    0.11119    1.000
    H58      H        0.84390    0.39110    0.09540    1.000
    C87      C        0.78740    0.51970    0.15655    1.000
    H59      H        0.77230    0.55300    0.17240    1.000
    C88      C        0.80810    0.57390    0.13445    1.000
    H60      H        0.80750    0.64320    0.13520    1.000
    C89      C        0.82960    0.52660    0.11122    1.000
    C90      C        0.85310    0.58090    0.08721    1.000
    C91      C        0.72290    0.45530    0.24105    1.000
    H61      H        0.69150    0.45330    0.23210    1.000
    C92      C        0.72660    0.49030    0.26928    1.000
    H62      H        0.69820    0.51080    0.27960    1.000
    C93      C        0.80600    0.43290    0.23773    1.000
    H63      H        0.83390    0.41440    0.22670    1.000
    C94      C        0.81270    0.46800    0.26588    1.000
    H64      H        0.84480    0.47350    0.27380    1.000
    C95      C        0.77240    0.49480    0.28212    1.000
    C96      C        0.77750    0.52560    0.31288    1.000
    C97      C        0.95950    0.58910    0.36217    1.000
    H65      H        0.98820    0.59110    0.35040    1.000
    C98      C        0.91480    0.57140    0.34874    1.000
    H66      H        0.91310    0.55940    0.32830    1.000
    C99      C        0.92360    0.60000    0.40702    1.000
    H67      H        0.92670    0.60780    0.42750    1.000
    C100     C        0.87750    0.58580    0.39538    1.000
    H68      H        0.84950    0.58580    0.40770    1.000
    C101     C        0.87260    0.57150    0.36565    1.000
    C102     C        0.82410    0.55920    0.35198    1.000
    C103     C        0.65660    0.61700    0.41771    1.000
    H69      H        0.65850    0.63570    0.43760    1.000
    C104     C        0.69940    0.60120    0.40277    1.000
    H70      H        0.73010    0.60790    0.41230    1.000
    C105     C        0.61030    0.58050    0.37735    1.000
    H71      H        0.57910    0.57170    0.36860    1.000
    C106     C        0.65140    0.56520    0.36068    1.000
    H72      H        0.64870    0.54790    0.34070    1.000
    C107     C        0.69700    0.57550    0.37370    1.000
    C108     C        0.74220    0.56070    0.35618    1.000
    N25      N        0.93844    0.00750    0.08318    1.000
    N26      N        0.93610    0.42860    0.96720    1.000
    N27      N        0.78760    0.42240    0.15671    1.000
    N28      N        0.89890    0.67690    0.04463    1.000
    N29      N        0.86350    0.53130    0.06273    1.000
    N30      N        0.86417    0.67410    0.09174    1.000
    N31      N        0.76175    0.42410    0.22568    1.000
    N32      N        0.96416    0.60330    0.39053    1.000
    N33      N        0.61227    0.60760    0.40566    1.000
    N34      N        0.82273    0.53550    0.32373    1.000
    N35      N        0.78509    0.57180    0.36941    1.000
    N36      N        0.73588    0.53790    0.32809    1.000
    Zn10     Zn       0.74633    0.65660    0.68856    1.000
    Zn11     Zn       0.53019    0.85841    0.59069    1.000
    Zn12     Zn       0.54882    0.63970    0.42801    1.000
    I19      I        0.83727    0.67113    0.67723    1.000
    I20      I        0.69474    0.81047    0.69594    1.000
    I21      I        0.57770    0.77451    0.63098    1.000
    I22      I        0.51494    0.77889    0.54131    1.000
    I23      I        0.54889    0.82339    0.43576    1.000
    I24      I        0.48232    0.54456    0.40169    1.000
    C109     C        0.57250    0.04970    0.60607    1.000
    H73      H        0.56810    0.02490    0.62520    1.000
    C110     C        0.58990    0.14310    0.60254    1.000
    H74      H        0.59700    0.18240    0.61910    1.000
    C111     C        0.56890    0.02630    0.55636    1.000
    H75      H        0.56260    0.98480    0.54020    1.000
    C112     C        0.58560    0.12040    0.55137    1.000
    H76      H        0.58910    0.14400    0.53200    1.000
    C113     C        0.59700    0.17950    0.57480    1.000
    C114     C        0.61320    0.28150    0.56985    1.000
    C115     C        0.55210    0.47730    0.47135    1.000
    H77      H        0.53250    0.44510    0.45720    1.000
    C116     C        0.56730    0.42640    0.49528    1.000
    H78      H        0.55810    0.36000    0.49760    1.000
    C117     C        0.59050    0.61630    0.48780    1.000
    H79      H        0.59780    0.68360    0.48540    1.000
    C118     C        0.60770    0.56890    0.51241    1.000
    H80      H        0.62710    0.60260    0.52640    1.000
    C119     C        0.59610    0.47120    0.51627    1.000
    C120     C        0.61270    0.41800    0.54271    1.000
    C121     C        0.69080    0.62390    0.63426    1.000
    H81      H        0.68960    0.69320    0.63430    1.000
    C122     C        0.67030    0.57410    0.61119    1.000
    H82      H        0.65610    0.60890    0.59540    1.000
    C123     C        0.71260    0.48030    0.65655    1.000
    H83      H        0.72770    0.44700    0.67240    1.000
    C124     C        0.69190    0.42610    0.63445    1.000
    H84      H        0.69250    0.35680    0.63520    1.000
    C125     C        0.67040    0.47340    0.61122    1.000
    C126     C        0.64690    0.41910    0.58721    1.000
    C127     C        0.77710    0.54470    0.74105    1.000
    H85      H        0.80850    0.54670    0.73210    1.000
    C128     C        0.77340    0.50970    0.76928    1.000
    H86      H        0.80180    0.48920    0.77960    1.000
    C129     C        0.69400    0.56710    0.73773    1.000
    H87      H        0.66610    0.58560    0.72670    1.000
    C130     C        0.68730    0.53200    0.76588    1.000
    H88      H        0.65520    0.52650    0.77380    1.000
    C131     C        0.72760    0.50520    0.78212    1.000
    C132     C        0.72250    0.47440    0.81288    1.000
    C133     C        0.54050    0.41090    0.86217    1.000
    H89      H        0.51180    0.40890    0.85040    1.000
    C134     C        0.58520    0.42860    0.84874    1.000
    H90      H        0.58690    0.44060    0.82830    1.000
    C135     C        0.57640    0.40000    0.90702    1.000
    H91      H        0.57330    0.39220    0.92750    1.000
    C136     C        0.62250    0.41420    0.89538    1.000
    H92      H        0.65050    0.41420    0.90770    1.000
    C137     C        0.62740    0.42850    0.86565    1.000
    C138     C        0.67590    0.44080    0.85198    1.000
    C139     C        0.84340    0.38300    0.91771    1.000
    H93      H        0.84150    0.36430    0.93760    1.000
    C140     C        0.80060    0.39880    0.90277    1.000
    H94      H        0.76990    0.39210    0.91230    1.000
    C141     C        0.88970    0.41950    0.87735    1.000
    H95      H        0.92090    0.42830    0.86860    1.000
    C142     C        0.84860    0.43480    0.86068    1.000
    H96      H        0.85130    0.45210    0.84070    1.000
    C143     C        0.80300    0.42450    0.87370    1.000
    C144     C        0.75780    0.43930    0.85618    1.000
    N37      N        0.56156    0.99250    0.58318    1.000
    N38      N        0.56390    0.57140    0.46720    1.000
    N39      N        0.71240    0.57760    0.65671    1.000
    N40      N        0.60110    0.32310    0.54463    1.000
    N41      N        0.63650    0.46870    0.56273    1.000
    N42      N        0.63583    0.32590    0.59174    1.000
    N43      N        0.73825    0.57590    0.72568    1.000
    N44      N        0.53584    0.39670    0.89053    1.000
    N45      N        0.88773    0.39240    0.90566    1.000
    N46      N        0.67727    0.46450    0.82373    1.000
    N47      N        0.71491    0.42820    0.86941    1.000
    N48      N        0.76412    0.46210    0.82809    1.000
    Zn13     Zn       0.75367    0.15660    0.68856    1.000
    Zn14     Zn       0.96981    0.35841    0.59069    1.000
    Zn15     Zn       0.95118    0.13970    0.42801    1.000
    I25      I        0.66273    0.17113    0.67723    1.000
    I26      I        0.80526    0.31047    0.69594    1.000
    I27      I        0.92230    0.27451    0.63098    1.000
    I28      I        0.98506    0.27889    0.54131    1.000
    I29      I        0.95111    0.32339    0.43576    1.000
    I30      I        0.01768    0.04456    0.40169    1.000
    C145     C        0.92750    0.54970    0.60607    1.000
    H97      H        0.93190    0.52490    0.62520    1.000
    C146     C        0.91010    0.64310    0.60254    1.000
    H98      H        0.90300    0.68240    0.61910    1.000
    C147     C        0.93110    0.52630    0.55636    1.000
    H99      H        0.93740    0.48480    0.54020    1.000
    C148     C        0.91440    0.62040    0.55137    1.000
    H100     H        0.91090    0.64400    0.53200    1.000
    C149     C        0.90300    0.67950    0.57480    1.000
    C150     C        0.88680    0.78150    0.56985    1.000
    C151     C        0.94790    0.97730    0.47135    1.000
    H101     H        0.96750    0.94510    0.45720    1.000
    C152     C        0.93270    0.92640    0.49528    1.000
    H102     H        0.94190    0.86000    0.49760    1.000
    C153     C        0.90950    0.11630    0.48780    1.000
    H103     H        0.90220    0.18360    0.48540    1.000
    C154     C        0.89230    0.06890    0.51241    1.000
    H104     H        0.87290    0.10260    0.52640    1.000
    C155     C        0.90390    0.97120    0.51627    1.000
    C156     C        0.88730    0.91800    0.54271    1.000
    C157     C        0.80920    0.12390    0.63426    1.000
    H105     H        0.81040    0.19320    0.63430    1.000
    C158     C        0.82970    0.07410    0.61119    1.000
    H106     H        0.84390    0.10890    0.59540    1.000
    C159     C        0.78740    0.98030    0.65655    1.000
    H107     H        0.77230    0.94700    0.67240    1.000
    C160     C        0.80810    0.92610    0.63445    1.000
    H108     H        0.80750    0.85680    0.63520    1.000
    C161     C        0.82960    0.97340    0.61122    1.000
    C162     C        0.85310    0.91910    0.58721    1.000
    C163     C        0.72290    0.04470    0.74105    1.000
    H109     H        0.69150    0.04670    0.73210    1.000
    C164     C        0.72660    0.00970    0.76928    1.000
    H110     H        0.69820    0.98920    0.77960    1.000
    C165     C        0.80600    0.06710    0.73773    1.000
    H111     H        0.83390    0.08560    0.72670    1.000
    C166     C        0.81270    0.03200    0.76588    1.000
    H112     H        0.84480    0.02650    0.77380    1.000
    C167     C        0.77240    0.00520    0.78212    1.000
    C168     C        0.77750    0.97440    0.81288    1.000
    C169     C        0.95950    0.91090    0.86217    1.000
    H113     H        0.98820    0.90890    0.85040    1.000
    C170     C        0.91480    0.92860    0.84874    1.000
    H114     H        0.91310    0.94060    0.82830    1.000
    C171     C        0.92360    0.90000    0.90702    1.000
    H115     H        0.92670    0.89220    0.92750    1.000
    C172     C        0.87750    0.91420    0.89538    1.000
    H116     H        0.84950    0.91420    0.90770    1.000
    C173     C        0.87260    0.92850    0.86565    1.000
    C174     C        0.82410    0.94080    0.85198    1.000
    C175     C        0.65660    0.88300    0.91771    1.000
    H117     H        0.65850    0.86430    0.93760    1.000
    C176     C        0.69940    0.89880    0.90277    1.000
    H118     H        0.73010    0.89210    0.91230    1.000
    C177     C        0.61030    0.91950    0.87735    1.000
    H119     H        0.57910    0.92830    0.86860    1.000
    C178     C        0.65140    0.93480    0.86068    1.000
    H120     H        0.64870    0.95210    0.84070    1.000
    C179     C        0.69700    0.92450    0.87370    1.000
    C180     C        0.74220    0.93930    0.85618    1.000
    N49      N        0.93844    0.49250    0.58318    1.000
    N50      N        0.93610    0.07140    0.46720    1.000
    N51      N        0.78760    0.07760    0.65671    1.000
    N52      N        0.89890    0.82310    0.54463    1.000
    N53      N        0.86350    0.96870    0.56273    1.000
    N54      N        0.86417    0.82590    0.59174    1.000
    N55      N        0.76175    0.07590    0.72568    1.000
    N56      N        0.96416    0.89670    0.89053    1.000
    N57      N        0.61227    0.89240    0.90566    1.000
    N58      N        0.82273    0.96450    0.82373    1.000
    N59      N        0.78509    0.92820    0.86941    1.000
    N60      N        0.73588    0.96210    0.82809    1.000
    Zn16     Zn       0.74633    0.84340    0.18856    1.000
    Zn17     Zn       0.53019    0.64159    0.09069    1.000
    Zn18     Zn       0.54882    0.86030    0.92801    1.000
    I31      I        0.83727    0.82887    0.17723    1.000
    I32      I        0.69474    0.68953    0.19594    1.000
    I33      I        0.57770    0.72549    0.13098    1.000
    I34      I        0.51494    0.72111    0.04131    1.000
    I35      I        0.54889    0.67661    0.93576    1.000
    I36      I        0.48232    0.95544    0.90169    1.000
    C181     C        0.57250    0.45030    0.10607    1.000
    H121     H        0.56810    0.47510    0.12520    1.000
    C182     C        0.58990    0.35690    0.10254    1.000
    H122     H        0.59700    0.31760    0.11910    1.000
    C183     C        0.56890    0.47370    0.05636    1.000
    H123     H        0.56260    0.51520    0.04020    1.000
    C184     C        0.58560    0.37960    0.05137    1.000
    H124     H        0.58910    0.35600    0.03200    1.000
    C185     C        0.59700    0.32050    0.07480    1.000
    C186     C        0.61320    0.21850    0.06985    1.000
    C187     C        0.55210    0.02270    0.97135    1.000
    H125     H        0.53250    0.05490    0.95720    1.000
    C188     C        0.56730    0.07360    0.99528    1.000
    H126     H        0.55810    0.14000    0.99760    1.000
    C189     C        0.59050    0.88370    0.98780    1.000
    H127     H        0.59780    0.81640    0.98540    1.000
    C190     C        0.60770    0.93110    0.01241    1.000
    H128     H        0.62710    0.89740    0.02640    1.000
    C191     C        0.59610    0.02880    0.01627    1.000
    C192     C        0.61270    0.08200    0.04271    1.000
    C193     C        0.69080    0.87610    0.13426    1.000
    H129     H        0.68960    0.80680    0.13430    1.000
    C194     C        0.67030    0.92590    0.11119    1.000
    H130     H        0.65610    0.89110    0.09540    1.000
    C195     C        0.71260    0.01970    0.15655    1.000
    H131     H        0.72770    0.05300    0.17240    1.000
    C196     C        0.69190    0.07390    0.13445    1.000
    H132     H        0.69250    0.14320    0.13520    1.000
    C197     C        0.67040    0.02660    0.11122    1.000
    C198     C        0.64690    0.08090    0.08721    1.000
    C199     C        0.77710    0.95530    0.24105    1.000
    H133     H        0.80850    0.95330    0.23210    1.000
    C200     C        0.77340    0.99030    0.26928    1.000
    H134     H        0.80180    0.01080    0.27960    1.000
    C201     C        0.69400    0.93290    0.23773    1.000
    H135     H        0.66610    0.91440    0.22670    1.000
    C202     C        0.68730    0.96800    0.26588    1.000
    H136     H        0.65520    0.97350    0.27380    1.000
    C203     C        0.72760    0.99480    0.28212    1.000
    C204     C        0.72250    0.02560    0.31288    1.000
    C205     C        0.54050    0.08910    0.36217    1.000
    H137     H        0.51180    0.09110    0.35040    1.000
    C206     C        0.58520    0.07140    0.34874    1.000
    H138     H        0.58690    0.05940    0.32830    1.000
    C207     C        0.57640    0.10000    0.40702    1.000
    H139     H        0.57330    0.10780    0.42750    1.000
    C208     C        0.62250    0.08580    0.39538    1.000
    H140     H        0.65050    0.08580    0.40770    1.000
    C209     C        0.62740    0.07150    0.36565    1.000
    C210     C        0.67590    0.05920    0.35198    1.000
    C211     C        0.84340    0.11700    0.41771    1.000
    H141     H        0.84150    0.13570    0.43760    1.000
    C212     C        0.80060    0.10120    0.40277    1.000
    H142     H        0.76990    0.10790    0.41230    1.000
    C213     C        0.88970    0.08050    0.37735    1.000
    H143     H        0.92090    0.07170    0.36860    1.000
    C214     C        0.84860    0.06520    0.36068    1.000
    H144     H        0.85130    0.04790    0.34070    1.000
    C215     C        0.80300    0.07550    0.37370    1.000
    C216     C        0.75780    0.06070    0.35618    1.000
    N61      N        0.56156    0.50750    0.08318    1.000
    N62      N        0.56390    0.92860    0.96720    1.000
    N63      N        0.71240    0.92240    0.15671    1.000
    N64      N        0.60110    0.17690    0.04463    1.000
    N65      N        0.63650    0.03130    0.06273    1.000
    N66      N        0.63583    0.17410    0.09174    1.000
    N67      N        0.73825    0.92410    0.22568    1.000
    N68      N        0.53584    0.10330    0.39053    1.000
    N69      N        0.88773    0.10760    0.40566    1.000
    N70      N        0.67727    0.03550    0.32373    1.000
    N71      N        0.71491    0.07180    0.36941    1.000
    N72      N        0.76412    0.03790    0.32809    1.000
    Zn19     Zn       0.24633    0.65660    0.81144    1.000
    Zn20     Zn       0.03019    0.85841    0.90931    1.000
    Zn21     Zn       0.04882    0.63970    0.07199    1.000
    I37      I        0.33727    0.67113    0.82277    1.000
    I38      I        0.19474    0.81047    0.80406    1.000
    I39      I        0.07770    0.77451    0.86902    1.000
    I40      I        0.01494    0.77889    0.95869    1.000
    I41      I        0.04889    0.82339    0.06424    1.000
    I42      I        0.98232    0.54456    0.09831    1.000
    C217     C        0.07250    0.04970    0.89393    1.000
    H145     H        0.06810    0.02490    0.87480    1.000
    C218     C        0.08990    0.14310    0.89746    1.000
    H146     H        0.09700    0.18240    0.88090    1.000
    C219     C        0.06890    0.02630    0.94364    1.000
    H147     H        0.06260    0.98480    0.95980    1.000
    C220     C        0.08560    0.12040    0.94863    1.000
    H148     H        0.08910    0.14400    0.96800    1.000
    C221     C        0.09700    0.17950    0.92520    1.000
    C222     C        0.11320    0.28150    0.93015    1.000
    C223     C        0.05210    0.47730    0.02865    1.000
    H149     H        0.03250    0.44510    0.04280    1.000
    C224     C        0.06730    0.42640    0.00472    1.000
    H150     H        0.05810    0.36000    0.00240    1.000
    C225     C        0.09050    0.61630    0.01220    1.000
    H151     H        0.09780    0.68360    0.01460    1.000
    C226     C        0.10770    0.56890    0.98759    1.000
    H152     H        0.12710    0.60260    0.97360    1.000
    C227     C        0.09610    0.47120    0.98373    1.000
    C228     C        0.11270    0.41800    0.95729    1.000
    C229     C        0.19080    0.62390    0.86574    1.000
    H153     H        0.18960    0.69320    0.86570    1.000
    C230     C        0.17030    0.57410    0.88881    1.000
    H154     H        0.15610    0.60890    0.90460    1.000
    C231     C        0.21260    0.48030    0.84345    1.000
    H155     H        0.22770    0.44700    0.82760    1.000
    C232     C        0.19190    0.42610    0.86555    1.000
    H156     H        0.19250    0.35680    0.86480    1.000
    C233     C        0.17040    0.47340    0.88878    1.000
    C234     C        0.14690    0.41910    0.91279    1.000
    C235     C        0.27710    0.54470    0.75895    1.000
    H157     H        0.30850    0.54670    0.76790    1.000
    C236     C        0.27340    0.50970    0.73072    1.000
    H158     H        0.30180    0.48920    0.72040    1.000
    C237     C        0.19400    0.56710    0.76227    1.000
    H159     H        0.16610    0.58560    0.77330    1.000
    C238     C        0.18730    0.53200    0.73412    1.000
    H160     H        0.15520    0.52650    0.72620    1.000
    C239     C        0.22760    0.50520    0.71788    1.000
    C240     C        0.22250    0.47440    0.68712    1.000
    C241     C        0.04050    0.41090    0.63783    1.000
    H161     H        0.01180    0.40890    0.64960    1.000
    C242     C        0.08520    0.42860    0.65126    1.000
    H162     H        0.08690    0.44060    0.67170    1.000
    C243     C        0.07640    0.40000    0.59298    1.000
    H163     H        0.07330    0.39220    0.57250    1.000
    C244     C        0.12250    0.41420    0.60462    1.000
    H164     H        0.15050    0.41420    0.59230    1.000
    C245     C        0.12740    0.42850    0.63435    1.000
    C246     C        0.17590    0.44080    0.64802    1.000
    C247     C        0.34340    0.38300    0.58229    1.000
    H165     H        0.34150    0.36430    0.56240    1.000
    C248     C        0.30060    0.39880    0.59723    1.000
    H166     H        0.26990    0.39210    0.58770    1.000
    C249     C        0.38970    0.41950    0.62265    1.000
    H167     H        0.42090    0.42830    0.63140    1.000
    C250     C        0.34860    0.43480    0.63932    1.000
    H168     H        0.35130    0.45210    0.65930    1.000
    C251     C        0.30300    0.42450    0.62630    1.000
    C252     C        0.25780    0.43930    0.64382    1.000
    N73      N        0.06156    0.99250    0.91682    1.000
    N74      N        0.06390    0.57140    0.03280    1.000
    N75      N        0.21240    0.57760    0.84329    1.000
    N76      N        0.10110    0.32310    0.95537    1.000
    N77      N        0.13650    0.46870    0.93727    1.000
    N78      N        0.13583    0.32590    0.90826    1.000
    N79      N        0.23825    0.57590    0.77432    1.000
    N80      N        0.03584    0.39670    0.60947    1.000
    N81      N        0.38773    0.39240    0.59434    1.000
    N82      N        0.17727    0.46450    0.67627    1.000
    N83      N        0.21491    0.42820    0.63059    1.000
    N84      N        0.26412    0.46210    0.67191    1.000
    Zn22     Zn       0.25367    0.34340    0.31144    1.000
    Zn23     Zn       0.46981    0.14159    0.40931    1.000
    Zn24     Zn       0.45118    0.36030    0.57199    1.000
    I43      I        0.16273    0.32887    0.32277    1.000
    I44      I        0.30526    0.18953    0.30406    1.000
    I45      I        0.42230    0.22549    0.36902    1.000
    I46      I        0.48506    0.22111    0.45869    1.000
    I47      I        0.45111    0.17661    0.56424    1.000
    I48      I        0.51768    0.45544    0.59831    1.000
    C253     C        0.42750    0.95030    0.39393    1.000
    H169     H        0.43190    0.97510    0.37480    1.000
    C254     C        0.41010    0.85690    0.39746    1.000
    H170     H        0.40300    0.81760    0.38090    1.000
    C255     C        0.43110    0.97370    0.44364    1.000
    H171     H        0.43740    0.01520    0.45980    1.000
    C256     C        0.41440    0.87960    0.44863    1.000
    H172     H        0.41090    0.85600    0.46800    1.000
    C257     C        0.40300    0.82050    0.42520    1.000
    C258     C        0.38680    0.71850    0.43015    1.000
    C259     C        0.44790    0.52270    0.52865    1.000
    H173     H        0.46750    0.55490    0.54280    1.000
    C260     C        0.43270    0.57360    0.50472    1.000
    H174     H        0.44190    0.64000    0.50240    1.000
    C261     C        0.40950    0.38370    0.51220    1.000
    H175     H        0.40220    0.31640    0.51460    1.000
    C262     C        0.39230    0.43110    0.48759    1.000
    H176     H        0.37290    0.39740    0.47360    1.000
    C263     C        0.40390    0.52880    0.48373    1.000
    C264     C        0.38730    0.58200    0.45729    1.000
    C265     C        0.30920    0.37610    0.36574    1.000
    H177     H        0.31040    0.30680    0.36570    1.000
    C266     C        0.32970    0.42590    0.38881    1.000
    H178     H        0.34390    0.39110    0.40460    1.000
    C267     C        0.28740    0.51970    0.34345    1.000
    H179     H        0.27230    0.55300    0.32760    1.000
    C268     C        0.30810    0.57390    0.36555    1.000
    H180     H        0.30750    0.64320    0.36480    1.000
    C269     C        0.32960    0.52660    0.38878    1.000
    C270     C        0.35310    0.58090    0.41279    1.000
    C271     C        0.22290    0.45530    0.25895    1.000
    H181     H        0.19150    0.45330    0.26790    1.000
    C272     C        0.22660    0.49030    0.23072    1.000
    H182     H        0.19820    0.51080    0.22040    1.000
    C273     C        0.30600    0.43290    0.26227    1.000
    H183     H        0.33390    0.41440    0.27330    1.000
    C274     C        0.31270    0.46800    0.23412    1.000
    H184     H        0.34480    0.47350    0.22620    1.000
    C275     C        0.27240    0.49480    0.21788    1.000
    C276     C        0.27750    0.52560    0.18712    1.000
    C277     C        0.45950    0.58910    0.13783    1.000
    H185     H        0.48820    0.59110    0.14960    1.000
    C278     C        0.41480    0.57140    0.15126    1.000
    H186     H        0.41310    0.55940    0.17170    1.000
    C279     C        0.42360    0.60000    0.09298    1.000
    H187     H        0.42670    0.60780    0.07250    1.000
    C280     C        0.37750    0.58580    0.10462    1.000
    H188     H        0.34950    0.58580    0.09230    1.000
    C281     C        0.37260    0.57150    0.13435    1.000
    C282     C        0.32410    0.55920    0.14802    1.000
    C283     C        0.15660    0.61700    0.08229    1.000
    H189     H        0.15850    0.63570    0.06240    1.000
    C284     C        0.19940    0.60120    0.09723    1.000
    H190     H        0.23010    0.60790    0.08770    1.000
    C285     C        0.11030    0.58050    0.12265    1.000
    H191     H        0.07910    0.57170    0.13140    1.000
    C286     C        0.15140    0.56520    0.13932    1.000
    H192     H        0.14870    0.54790    0.15930    1.000
    C287     C        0.19700    0.57550    0.12630    1.000
    C288     C        0.24220    0.56070    0.14382    1.000
    N85      N        0.43844    0.00750    0.41682    1.000
    N86      N        0.43610    0.42860    0.53280    1.000
    N87      N        0.28760    0.42240    0.34329    1.000
    N88      N        0.39890    0.67690    0.45537    1.000
    N89      N        0.36350    0.53130    0.43727    1.000
    N90      N        0.36417    0.67410    0.40826    1.000
    N91      N        0.26175    0.42410    0.27432    1.000
    N92      N        0.46416    0.60330    0.10947    1.000
    N93      N        0.11227    0.60760    0.09434    1.000
    N94      N        0.32273    0.53550    0.17627    1.000
    N95      N        0.28509    0.57180    0.13059    1.000
    N96      N        0.23588    0.53790    0.17191    1.000
