# CIF file generated by openbabel 3.1.0, see https://openbabel.org
data_I
_chemical_name_common 'image0'
_cell_length_a 16.2893
_cell_length_b 16.7991
_cell_length_c 17.4829
_cell_angle_alpha 86.419
_cell_angle_beta 87.725
_cell_angle_gamma 66.905
_space_group_name_H-M_alt 'P 1'
_space_group_name_Hall 'P 1'
loop_
    _symmetry_equiv_pos_as_xyz
    x,y,z
loop_
    _atom_site_label
    _atom_site_type_symbol
    _atom_site_fract_x
    _atom_site_fract_y
    _atom_site_fract_z
    _atom_site_occupancy
    Ag1      Ag       0.77904    0.07106    0.14922    1.000
    Ag2      Ag       0.60357    0.29885    0.20186    1.000
    Ag3      Ag       0.73149    0.09990    0.39054    1.000
    S1       S        0.72035    0.22555    0.10260    1.000
    S2       S        0.84658    0.04202    0.27879    1.000
    S3       S        0.59986    0.19271    0.30620    1.000
    P1       P        0.77354    0.12101    0.51875    1.000
    P2       P        0.71244    0.95407    0.42098    1.000
    P3       P        0.81842    0.95392    0.06126    1.000
    P4       P        0.49932    0.44823    0.19426    1.000
    C1       C        0.69369    0.10307    0.58670    1.000
    C2       C        0.60358    0.15000    0.57268    1.000
    H1       H        0.58630    0.19040    0.52990    1.000
    C3       C        0.53853    0.13842    0.62056    1.000
    H2       H        0.47720    0.17160    0.61100    1.000
    C4       C        0.56302    0.07889    0.68172    1.000
    H3       H        0.51850    0.07040    0.71390    1.000
    C5       C        0.65235    0.03138    0.69645    1.000
    H4       H        0.66900    0.99050    0.73890    1.000
    C6       C        0.71821    0.04325    0.64903    1.000
    H5       H        0.77950    0.01060    0.65930    1.000
    C7       C        0.77962    0.21932    0.55417    1.000
    C8       C        0.77609    0.28703    0.50335    1.000
    H6       H        0.77090    0.28260    0.45000    1.000
    C9       C        0.78020    0.36141    0.53010    1.000
    H7       H        0.77720    0.40790    0.49500    1.000
    C10      C        0.78848    0.36817    0.60714    1.000
    H8       H        0.79150    0.41920    0.62510    1.000
    C11      C        0.79241    0.30141    0.65797    1.000
    H9       H        0.79820    0.30610    0.71120    1.000
    C12      C        0.78790    0.22705    0.63201    1.000
    H10      H        0.79050    0.18100    0.66750    1.000
    C13      C        0.88143    0.03637    0.54631    1.000
    H11      H        0.89740    0.04730    0.59760    1.000
    H12      H        0.87650    0.97930    0.54960    1.000
    C14      C        0.95502    0.03422    0.48829    1.000
    H13      H        0.93970    0.02190    0.43730    1.000
    H14      H        0.95880    0.09170    0.48400    1.000
    C15      C        0.69201    0.90536    0.33670    1.000
    C16      C        0.66090    0.95798    0.27039    1.000
    H15      H        0.65230    0.01730    0.26950    1.000
    C17      C        0.64239    0.92445    0.20565    1.000
    H16      H        0.62110    0.96080    0.16090    1.000
    C18      C        0.65493    0.83830    0.20650    1.000
    H17      H        0.64230    0.81530    0.16220    1.000
    C19      C        0.68578    0.78536    0.27148    1.000
    H18      H        0.69440    0.72600    0.27190    1.000
    C20      C        0.70432    0.81858    0.33631    1.000
    H19      H        0.72560    0.78170    0.38080    1.000
    C21      C        0.81580    0.87189    0.45894    1.000
    C22      C        0.82305    0.83546    0.53345    1.000
    H20      H        0.77110    0.84850    0.56500    1.000
    C23      C        0.90516    0.78040    0.56199    1.000
    H21      H        0.90920    0.75610    0.61290    1.000
    C24      C        0.98145    0.76072    0.51635    1.000
    H22      H        0.03780    0.72310    0.53600    1.000
    C25      C        0.97532    0.79572    0.44289    1.000
    H23      H        0.02760    0.78180    0.41160    1.000
    C26      C        0.89347    0.85137    0.41361    1.000
    H24      H        0.89020    0.87560    0.36270    1.000
    C27      C        0.62855    0.94507    0.49083    1.000
    H25      H        0.63310    0.88440    0.49440    1.000
    H26      H        0.64180    0.95910    0.54190    1.000
    C28      C        0.53351    0.00473    0.46996    1.000
    H27      H        0.51940    0.99050    0.41930    1.000
    H28      H        0.52840    0.06550    0.46630    1.000
    C29      C        0.73681    0.93906    0.00140    1.000
    C30      C        0.68076    0.01046    0.95835    1.000
    H29      H        0.68650    0.06440    0.96040    1.000
    C31      C        0.61669    0.00415    0.91242    1.000
    H30      H        0.57860    0.05380    0.88350    1.000
    C32      C        0.60765    0.92670    0.90831    1.000
    H31      H        0.56340    0.92250    0.87680    1.000
    C33      C        0.66360    0.85470    0.95050    1.000
    H32      H        0.65810    0.80070    0.94730    1.000
    C34      C        0.72765    0.86037    0.99721    1.000
    H33      H        0.76530    0.81070    0.02640    1.000
    C35      C        0.88497    0.84596    0.10150    1.000
    C36      C        0.88045    0.83058    0.17996    1.000
    H34      H        0.84330    0.87590    0.21090    1.000
    C37      C        0.92940    0.74980    0.21383    1.000
    H35      H        0.92560    0.74010    0.26770    1.000
    C38      C        0.98349    0.68382    0.16987    1.000
    H36      H        0.01670    0.62840    0.19330    1.000
    C39      C        0.98960    0.69797    0.09174    1.000
    H37      H        0.02720    0.65240    0.06130    1.000
    C40      C        0.94088    0.77868    0.05770    1.000
    H38      H        0.94560    0.78830    0.00390    1.000
    C41      C        0.89364    0.97598    0.98968    1.000
    H39      H        0.91900    0.92680    0.95570    1.000
    H40      H        0.85960    0.02860    0.95770    1.000
    C42      C        0.96925    0.98905    0.02900    1.000
    H41      H        0.94360    0.03660    0.06470    1.000
    H42      H        0.00450    0.93550    0.05940    1.000
    C43      C        0.50785    0.51368    0.26999    1.000
    C44      C        0.43795    0.55457    0.32052    1.000
    H43      H        0.38280    0.54820    0.31670    1.000
    C45      C        0.44850    0.60440    0.37623    1.000
    H44      H        0.40020    0.63230    0.41030    1.000
    C46      C        0.52720    0.61396    0.38299    1.000
    H45      H        0.53330    0.64940    0.42080    1.000
    C47      C        0.59840    0.57170    0.33435    1.000
    H46      H        0.65360    0.57740    0.33940    1.000
    C48      C        0.58896    0.52111    0.27830    1.000
    H47      H        0.63810    0.49150    0.24560    1.000
    C49      C        0.38250    0.46276    0.19258    1.000
    C50      C        0.36084    0.39265    0.21336    1.000
    H48      H        0.40610    0.33920    0.23040    1.000
    C51      C        0.27320    0.39990    0.20940    1.000
    H49      H        0.25860    0.35160    0.22440    1.000
    C52      C        0.20740    0.47670    0.18400    1.000
    H50      H        0.14780    0.48100    0.18050    1.000
    C53      C        0.22787    0.54730    0.16350    1.000
    H51      H        0.18230    0.60060    0.14680    1.000
    C54      C        0.31486    0.54027    0.16740    1.000
    H52      H        0.32890    0.58890    0.15270    1.000
    C55      C        0.51045    0.51171    0.10832    1.000
    H53      H        0.46480    0.57150    0.11020    1.000
    H54      H        0.57000    0.51480    0.10740    1.000
    C56      C        0.49937    0.47190    0.03573    1.000
    H55      H        0.44210    0.46410    0.03880    1.000
    H56      H        0.54820    0.41400    0.03180    1.000
    C57      C        0.67253    0.23017    0.01231    1.000
    C58      C        0.58782    0.22834    0.00450    1.000
    C59      C        0.55350    0.23483    0.93147    1.000
    H57      H        0.49510    0.23600    0.92680    1.000
    C60      C        0.60180    0.23962    0.86562    1.000
    C61      C        0.68620    0.23799    0.87418    1.000
    H58      H        0.72080    0.23950    0.82940    1.000
    C62      C        0.72310    0.23428    0.94538    1.000
    C63      C        0.53379    0.21650    0.07236    1.000
    H59      H        0.57170    0.16850    0.10620    1.000
    H60      H        0.48420    0.20350    0.05490    1.000
    H61      H        0.51010    0.26990    0.10040    1.000
    C64      C        0.56120    0.24700    0.78757    1.000
    H62      H        0.52450    0.21250    0.78880    1.000
    H63      H        0.60900    0.22530    0.74900    1.000
    H64      H        0.52390    0.30780    0.77450    1.000
    C65      C        0.81430    0.23430    0.94980    1.000
    H65      H        0.81010    0.28910    0.96980    1.000
    H66      H        0.84190    0.22810    0.89850    1.000
    H67      H        0.85070    0.18590    0.98400    1.000
    C66      C        0.93346    0.07984    0.26062    1.000
    C67      C        0.91918    0.16758    0.26411    1.000
    C68      C        0.98957    0.19360    0.24809    1.000
    H68      H        0.97940    0.25300    0.25120    1.000
    C69      C        0.07424    0.13560    0.22764    1.000
    C70      C        0.08714    0.04950    0.22404    1.000
    H69      H        0.14450    0.00910    0.20950    1.000
    C71      C        0.01974    0.01966    0.24078    1.000
    C72      C        0.82849    0.23466    0.28271    1.000
    H70      H        0.78670    0.23800    0.24260    1.000
    H71      H        0.83240    0.29120    0.28550    1.000
    H72      H        0.80720    0.21850    0.33210    1.000
    C73      C        0.15000    0.16510    0.21040    1.000
    H73      H        0.12560    0.22630    0.19290    1.000
    H74      H        0.18890    0.13040    0.17020    1.000
    H75      H        0.18450    0.15760    0.25690    1.000
    C74      C        0.03857    0.92529    0.23659    1.000
    H76      H        0.03090    0.90130    0.28760    1.000
    H77      H        0.10000    0.89470    0.21830    1.000
    H78      H        0.99710    0.91820    0.20110    1.000
    C75      C        0.49736    0.24707    0.35550    1.000
    C76      C        0.48504    0.31777    0.40044    1.000
    C77      C        0.40161    0.36182    0.43395    1.000
    H79      H        0.39290    0.41090    0.46250    1.000
    C78      C        0.33130    0.33670    0.42710    1.000
    C79      C        0.34498    0.26688    0.38244    1.000
    H80      H        0.29700    0.24910    0.37670    1.000
    C80      C        0.42541    0.22222    0.34611    1.000
    C81      C        0.55956    0.34594    0.41228    1.000
    H81      H        0.60630    0.30050    0.44210    1.000
    H82      H        0.53700    0.39950    0.44000    1.000
    H83      H        0.58430    0.35630    0.36240    1.000
    C82      C        0.24200    0.38490    0.46580    1.000
    H84      H        0.25140    0.40880    0.51290    1.000
    H85      H        0.21240    0.34500    0.47850    1.000
    H86      H        0.20460    0.43220    0.43110    1.000
    C83      C        0.43340    0.15129    0.29481    1.000
    H87      H        0.44590    0.16740    0.24210    1.000
    H88      H        0.37730    0.14250    0.29650    1.000
    H89      H        0.48210    0.09760    0.31220    1.000
    Ag4      Ag       0.22096    0.92894    0.85078    1.000
    Ag5      Ag       0.39643    0.70115    0.79814    1.000
    Ag6      Ag       0.26851    0.90010    0.60946    1.000
    S4       S        0.27965    0.77445    0.89740    1.000
    S5       S        0.15342    0.95798    0.72121    1.000
    S6       S        0.40014    0.80729    0.69380    1.000
    P5       P        0.22646    0.87899    0.48125    1.000
    P6       P        0.28756    0.04593    0.57902    1.000
    P7       P        0.18158    0.04608    0.93874    1.000
    P8       P        0.50068    0.55177    0.80574    1.000
    C84      C        0.30631    0.89693    0.41330    1.000
    C85      C        0.39642    0.85000    0.42732    1.000
    H90      H        0.41370    0.80960    0.47010    1.000
    C86      C        0.46147    0.86158    0.37944    1.000
    H91      H        0.52280    0.82840    0.38900    1.000
    C87      C        0.43698    0.92111    0.31828    1.000
    H92      H        0.48150    0.92960    0.28610    1.000
    C88      C        0.34765    0.96862    0.30355    1.000
    H93      H        0.33100    0.00950    0.26110    1.000
    C89      C        0.28179    0.95675    0.35097    1.000
    H94      H        0.22050    0.98940    0.34070    1.000
    C90      C        0.22038    0.78068    0.44583    1.000
    C91      C        0.22391    0.71297    0.49665    1.000
    H95      H        0.22910    0.71740    0.55000    1.000
    C92      C        0.21980    0.63859    0.46990    1.000
    H96      H        0.22280    0.59210    0.50500    1.000
    C93      C        0.21152    0.63183    0.39286    1.000
    H97      H        0.20850    0.58080    0.37490    1.000
    C94      C        0.20759    0.69859    0.34203    1.000
    H98      H        0.20180    0.69390    0.28880    1.000
    C95      C        0.21210    0.77295    0.36799    1.000
    H99      H        0.20950    0.81900    0.33250    1.000
    C96      C        0.11857    0.96363    0.45369    1.000
    H100     H        0.10260    0.95270    0.40240    1.000
    H101     H        0.12350    0.02070    0.45040    1.000
    C97      C        0.04498    0.96578    0.51171    1.000
    H102     H        0.06030    0.97810    0.56270    1.000
    H103     H        0.04120    0.90830    0.51600    1.000
    C98      C        0.30799    0.09464    0.66330    1.000
    C99      C        0.33910    0.04202    0.72961    1.000
    H104     H        0.34770    0.98270    0.73050    1.000
    C100     C        0.35761    0.07555    0.79435    1.000
    H105     H        0.37890    0.03920    0.83910    1.000
    C101     C        0.34507    0.16170    0.79350    1.000
    H106     H        0.35770    0.18470    0.83780    1.000
    C102     C        0.31422    0.21464    0.72852    1.000
    H107     H        0.30560    0.27400    0.72810    1.000
    C103     C        0.29568    0.18142    0.66369    1.000
    H108     H        0.27440    0.21830    0.61920    1.000
    C104     C        0.18420    0.12811    0.54106    1.000
    C105     C        0.17695    0.16454    0.46655    1.000
    H109     H        0.22890    0.15150    0.43500    1.000
    C106     C        0.09484    0.21960    0.43801    1.000
    H110     H        0.09080    0.24390    0.38710    1.000
    C107     C        0.01855    0.23928    0.48365    1.000
    H111     H        0.96220    0.27690    0.46400    1.000
    C108     C        0.02468    0.20428    0.55711    1.000
    H112     H        0.97240    0.21820    0.58840    1.000
    C109     C        0.10653    0.14863    0.58639    1.000
    H113     H        0.10980    0.12440    0.63730    1.000
    C110     C        0.37145    0.05493    0.50917    1.000
    H114     H        0.36690    0.11560    0.50560    1.000
    H115     H        0.35820    0.04090    0.45810    1.000
    C111     C        0.46649    0.99527    0.53004    1.000
    H116     H        0.48060    0.00950    0.58070    1.000
    H117     H        0.47160    0.93450    0.53370    1.000
    C112     C        0.26319    0.06094    0.99860    1.000
    C113     C        0.31924    0.98954    0.04165    1.000
    H118     H        0.31350    0.93560    0.03960    1.000
    C114     C        0.38331    0.99585    0.08758    1.000
    H119     H        0.42140    0.94620    0.11650    1.000
    C115     C        0.39235    0.07330    0.09169    1.000
    H120     H        0.43660    0.07750    0.12320    1.000
    C116     C        0.33640    0.14530    0.04950    1.000
    H121     H        0.34190    0.19930    0.05270    1.000
    C117     C        0.27235    0.13963    0.00279    1.000
    H122     H        0.23470    0.18930    0.97360    1.000
    C118     C        0.11503    0.15404    0.89850    1.000
    C119     C        0.11955    0.16942    0.82004    1.000
    H123     H        0.15670    0.12410    0.78910    1.000
    C120     C        0.07060    0.25020    0.78617    1.000
    H124     H        0.07440    0.25990    0.73230    1.000
    C121     C        0.01651    0.31618    0.83013    1.000
    H125     H        0.98330    0.37160    0.80670    1.000
    C122     C        0.01040    0.30203    0.90826    1.000
    H126     H        0.97280    0.34760    0.93870    1.000
    C123     C        0.05912    0.22132    0.94230    1.000
    H127     H        0.05440    0.21170    0.99610    1.000
    C124     C        0.10636    0.02402    0.01032    1.000
    H128     H        0.08100    0.07320    0.04430    1.000
    H129     H        0.14040    0.97140    0.04230    1.000
    C125     C        0.03075    0.01095    0.97100    1.000
    H130     H        0.05640    0.96340    0.93530    1.000
    H131     H        0.99550    0.06450    0.94060    1.000
    C126     C        0.49215    0.48632    0.73001    1.000
    C127     C        0.56205    0.44543    0.67948    1.000
    H132     H        0.61720    0.45180    0.68330    1.000
    C128     C        0.55150    0.39560    0.62377    1.000
    H133     H        0.59980    0.36770    0.58970    1.000
    C129     C        0.47280    0.38604    0.61701    1.000
    H134     H        0.46670    0.35060    0.57920    1.000
    C130     C        0.40160    0.42830    0.66565    1.000
    H135     H        0.34640    0.42260    0.66060    1.000
    C131     C        0.41104    0.47889    0.72170    1.000
    H136     H        0.36190    0.50850    0.75440    1.000
    C132     C        0.61750    0.53724    0.80742    1.000
    C133     C        0.63916    0.60735    0.78664    1.000
    H137     H        0.59390    0.66080    0.76960    1.000
    C134     C        0.72680    0.60010    0.79060    1.000
    H138     H        0.74140    0.64840    0.77560    1.000
    C135     C        0.79260    0.52330    0.81600    1.000
    H139     H        0.85220    0.51900    0.81950    1.000
    C136     C        0.77213    0.45270    0.83650    1.000
    H140     H        0.81770    0.39940    0.85320    1.000
    C137     C        0.68514    0.45973    0.83260    1.000
    H141     H        0.67110    0.41110    0.84730    1.000
    C138     C        0.48955    0.48829    0.89168    1.000
    H142     H        0.53520    0.42850    0.88980    1.000
    H143     H        0.43000    0.48520    0.89260    1.000
    C139     C        0.50063    0.52810    0.96427    1.000
    H144     H        0.55790    0.53590    0.96120    1.000
    H145     H        0.45180    0.58600    0.96820    1.000
    C140     C        0.32747    0.76983    0.98769    1.000
    C141     C        0.41218    0.77166    0.99550    1.000
    C142     C        0.44650    0.76517    0.06853    1.000
    H146     H        0.50490    0.76400    0.07320    1.000
    C143     C        0.39820    0.76038    0.13438    1.000
    C144     C        0.31380    0.76201    0.12582    1.000
    H147     H        0.27920    0.76050    0.17060    1.000
    C145     C        0.27690    0.76572    0.05462    1.000
    C146     C        0.46621    0.78350    0.92764    1.000
    H148     H        0.42830    0.83150    0.89380    1.000
    H149     H        0.51580    0.79650    0.94510    1.000
    H150     H        0.48990    0.73010    0.89960    1.000
    C147     C        0.43880    0.75300    0.21243    1.000
    H151     H        0.47550    0.78750    0.21120    1.000
    H152     H        0.39100    0.77470    0.25100    1.000
    H153     H        0.47610    0.69220    0.22550    1.000
    C148     C        0.18570    0.76570    0.05020    1.000
    H154     H        0.18990    0.71090    0.03020    1.000
    H155     H        0.15810    0.77190    0.10150    1.000
    H156     H        0.14930    0.81410    0.01600    1.000
    C149     C        0.06654    0.92016    0.73938    1.000
    C150     C        0.08082    0.83242    0.73589    1.000
    C151     C        0.01043    0.80640    0.75191    1.000
    H157     H        0.02060    0.74700    0.74880    1.000
    C152     C        0.92576    0.86440    0.77236    1.000
    C153     C        0.91286    0.95050    0.77596    1.000
    H158     H        0.85550    0.99090    0.79050    1.000
    C154     C        0.98026    0.98034    0.75922    1.000
    C155     C        0.17151    0.76534    0.71729    1.000
    H159     H        0.21330    0.76200    0.75740    1.000
    H160     H        0.16760    0.70880    0.71450    1.000
    H161     H        0.19280    0.78150    0.66790    1.000
    C156     C        0.85000    0.83490    0.78960    1.000
    H162     H        0.87440    0.77370    0.80710    1.000
    H163     H        0.81110    0.86960    0.82980    1.000
    H164     H        0.81550    0.84240    0.74310    1.000
    C157     C        0.96143    0.07471    0.76341    1.000
    H165     H        0.96910    0.09870    0.71240    1.000
    H166     H        0.90000    0.10530    0.78170    1.000
    H167     H        0.00290    0.08180    0.79890    1.000
    C158     C        0.50264    0.75293    0.64450    1.000
    C159     C        0.51496    0.68223    0.59956    1.000
    C160     C        0.59839    0.63818    0.56605    1.000
    H168     H        0.60710    0.58910    0.53750    1.000
    C161     C        0.66870    0.66330    0.57290    1.000
    C162     C        0.65502    0.73312    0.61756    1.000
    H169     H        0.70300    0.75090    0.62330    1.000
    C163     C        0.57459    0.77778    0.65389    1.000
    C164     C        0.44044    0.65406    0.58772    1.000
    H170     H        0.39370    0.69950    0.55790    1.000
    H171     H        0.46300    0.60050    0.56000    1.000
    H172     H        0.41570    0.64370    0.63760    1.000
    C165     C        0.75800    0.61510    0.53420    1.000
    H173     H        0.74860    0.59120    0.48710    1.000
    H174     H        0.78760    0.65500    0.52150    1.000
    H175     H        0.79540    0.56780    0.56890    1.000
    C166     C        0.56660    0.84871    0.70519    1.000
    H176     H        0.55410    0.83260    0.75790    1.000
    H177     H        0.62270    0.85750    0.70350    1.000
    H178     H        0.51790    0.90240    0.68780    1.000
