# CIF file generated by openbabel 3.1.0, see https://openbabel.org
data_I
_chemical_name_common 'image0'
_cell_length_a 13.656
_cell_length_b 16.807
_cell_length_c 8.237
_cell_angle_alpha 90
_cell_angle_beta 99.089
_cell_angle_gamma 90
_space_group_name_H-M_alt 'P 1'
_space_group_name_Hall 'P 1'
loop_
    _symmetry_equiv_pos_as_xyz
    x,y,z
loop_
    _atom_site_label
    _atom_site_type_symbol
    _atom_site_fract_x
    _atom_site_fract_y
    _atom_site_fract_z
    _atom_site_occupancy
    Zn1      Zn       0.86331    0.02289    0.87141    1.000
    O1       O        0.18070    0.42750    0.75210    1.000
    O2       O        0.95800    0.10360    0.82160    1.000
    O3       O        0.08250    0.02134    0.90610    1.000
    O4       O        0.74280    0.06830    0.93710    1.000
    O5       O        0.73600    0.12950    0.69690    1.000
    C1       C        0.15570    0.29190    0.80350    1.000
    C2       C        0.08900    0.23170    0.82150    1.000
    H1       H        0.02220    0.24360    0.81840    1.000
    C3       C        0.12140    0.15370    0.84410    1.000
    C4       C        0.22200    0.13660    0.85320    1.000
    H2       H        0.24400    0.08460    0.87280    1.000
    C5       C        0.28970    0.19600    0.83360    1.000
    C6       C        0.25550    0.27420    0.80870    1.000
    H3       H        0.30000    0.31460    0.79540    1.000
    C7       C        0.39590    0.17680    0.83560    1.000
    C8       C        0.45050    0.21500    0.73020    1.000
    H4       H        0.42090    0.25490    0.66120    1.000
    C9       C        0.54850    0.19450    0.72610    1.000
    H5       H        0.58290    0.21930    0.65130    1.000
    C10      C        0.59530    0.13790    0.83210    1.000
    C11      C        0.54340    0.10210    0.94280    1.000
    H6       H        0.57520    0.06530    0.01740    1.000
    C12      C        0.44350    0.12040    0.94450    1.000
    H7       H        0.40890    0.09480    0.01820    1.000
    C13      C        0.12000    0.37670    0.78050    1.000
    C14      C        0.05020    0.08780    0.86230    1.000
    C15      C        0.69890    0.11160    0.81900    1.000
    O6       O        0.03380    0.39130    0.78620    1.000
    Zn2      Zn       0.13669    0.52289    0.62859    1.000
    O7       O        0.81930    0.92750    0.74790    1.000
    O8       O        0.04200    0.60360    0.67840    1.000
    O9       O        0.91750    0.52134    0.59390    1.000
    O10      O        0.25720    0.56830    0.56290    1.000
    O11      O        0.26400    0.62950    0.80310    1.000
    C16      C        0.84430    0.79190    0.69650    1.000
    C17      C        0.91100    0.73170    0.67850    1.000
    H8       H        0.97780    0.74360    0.68160    1.000
    C18      C        0.87860    0.65370    0.65590    1.000
    C19      C        0.77800    0.63660    0.64680    1.000
    H9       H        0.75600    0.58460    0.62720    1.000
    C20      C        0.71030    0.69600    0.66640    1.000
    C21      C        0.74450    0.77420    0.69130    1.000
    H10      H        0.70000    0.81460    0.70460    1.000
    C22      C        0.60410    0.67680    0.66440    1.000
    C23      C        0.54950    0.71500    0.76980    1.000
    H11      H        0.57910    0.75490    0.83880    1.000
    C24      C        0.45150    0.69450    0.77390    1.000
    H12      H        0.41710    0.71930    0.84870    1.000
    C25      C        0.40470    0.63790    0.66790    1.000
    C26      C        0.45660    0.60210    0.55720    1.000
    H13      H        0.42480    0.56530    0.48260    1.000
    C27      C        0.55650    0.62040    0.55550    1.000
    H14      H        0.59110    0.59480    0.48180    1.000
    C28      C        0.88000    0.87670    0.71950    1.000
    C29      C        0.94980    0.58780    0.63770    1.000
    C30      C        0.30110    0.61160    0.68100    1.000
    O12      O        0.96620    0.89130    0.71380    1.000
    Zn3      Zn       0.13669    0.97711    0.12859    1.000
    O13      O        0.81930    0.57250    0.24790    1.000
    O14      O        0.04200    0.89640    0.17840    1.000
    O15      O        0.91750    0.97866    0.09390    1.000
    O16      O        0.25720    0.93170    0.06290    1.000
    O17      O        0.26400    0.87050    0.30310    1.000
    C31      C        0.84430    0.70810    0.19650    1.000
    C32      C        0.91100    0.76830    0.17850    1.000
    H15      H        0.97780    0.75640    0.18160    1.000
    C33      C        0.87860    0.84630    0.15590    1.000
    C34      C        0.77800    0.86340    0.14680    1.000
    H16      H        0.75600    0.91540    0.12720    1.000
    C35      C        0.71030    0.80400    0.16640    1.000
    C36      C        0.74450    0.72580    0.19130    1.000
    H17      H        0.70000    0.68540    0.20460    1.000
    C37      C        0.60410    0.82320    0.16440    1.000
    C38      C        0.54950    0.78500    0.26980    1.000
    H18      H        0.57910    0.74510    0.33880    1.000
    C39      C        0.45150    0.80550    0.27390    1.000
    H19      H        0.41710    0.78070    0.34870    1.000
    C40      C        0.40470    0.86210    0.16790    1.000
    C41      C        0.45660    0.89790    0.05720    1.000
    H20      H        0.42480    0.93470    0.98260    1.000
    C42      C        0.55650    0.87960    0.05550    1.000
    H21      H        0.59110    0.90520    0.98180    1.000
    C43      C        0.88000    0.62330    0.21950    1.000
    C44      C        0.94980    0.91220    0.13770    1.000
    C45      C        0.30110    0.88840    0.18100    1.000
    O18      O        0.96620    0.60870    0.21380    1.000
    Zn4      Zn       0.86331    0.47711    0.37141    1.000
    O19      O        0.18070    0.07250    0.25210    1.000
    O20      O        0.95800    0.39640    0.32160    1.000
    O21      O        0.08250    0.47866    0.40610    1.000
    O22      O        0.74280    0.43170    0.43710    1.000
    O23      O        0.73600    0.37050    0.19690    1.000
    C46      C        0.15570    0.20810    0.30350    1.000
    C47      C        0.08900    0.26830    0.32150    1.000
    H22      H        0.02220    0.25640    0.31840    1.000
    C48      C        0.12140    0.34630    0.34410    1.000
    C49      C        0.22200    0.36340    0.35320    1.000
    H23      H        0.24400    0.41540    0.37280    1.000
    C50      C        0.28970    0.30400    0.33360    1.000
    C51      C        0.25550    0.22580    0.30870    1.000
    H24      H        0.30000    0.18540    0.29540    1.000
    C52      C        0.39590    0.32320    0.33560    1.000
    C53      C        0.45050    0.28500    0.23020    1.000
    H25      H        0.42090    0.24510    0.16120    1.000
    C54      C        0.54850    0.30550    0.22610    1.000
    H26      H        0.58290    0.28070    0.15130    1.000
    C55      C        0.59530    0.36210    0.33210    1.000
    C56      C        0.54340    0.39790    0.44280    1.000
    H27      H        0.57520    0.43470    0.51740    1.000
    C57      C        0.44350    0.37960    0.44450    1.000
    H28      H        0.40890    0.40520    0.51820    1.000
    C58      C        0.12000    0.12330    0.28050    1.000
    C59      C        0.05020    0.41220    0.36230    1.000
    C60      C        0.69890    0.38840    0.31900    1.000
    O24      O        0.03380    0.10870    0.28620    1.000
