# CIF file generated by openbabel 3.1.0, see https://openbabel.org
data_I
_chemical_name_common 'image0'
_cell_length_a 23.679
_cell_length_b 23.679
_cell_length_c 16.816
_cell_angle_alpha 90
_cell_angle_beta 90
_cell_angle_gamma 90
_space_group_name_H-M_alt 'P 1'
_space_group_name_Hall 'P 1'
loop_
    _symmetry_equiv_pos_as_xyz
    x,y,z
loop_
    _atom_site_label
    _atom_site_type_symbol
    _atom_site_fract_x
    _atom_site_fract_y
    _atom_site_fract_z
    _atom_site_occupancy
    O1       O        0.84902    0.44324    0.57914    1.000
    O2       O        0.91613    0.39730    0.64920    1.000
    C1       C        0.86588    0.40727    0.62950    1.000
    C2       C        0.82152    0.37037    0.66730    1.000
    C3       C        0.76711    0.37170    0.64020    1.000
    H1       H        0.75720    0.39700    0.59860    1.000
    C4       C        0.72630    0.33690    0.67260    1.000
    C5       C        0.74180    0.29990    0.73260    1.000
    C6       C        0.79580    0.29910    0.76070    1.000
    H2       H        0.80570    0.27510    0.80380    1.000
    C7       C        0.83660    0.33390    0.72530    1.000
    H3       H        0.87480    0.33180    0.74210    1.000
    C8       C        0.66710    0.33610    0.63680    1.000
    H4       H        0.66450    0.36470    0.59480    1.000
    H5       H        0.63930    0.34440    0.67840    1.000
    H6       H        0.65950    0.29870    0.61420    1.000
    O3       O        0.15098    0.55676    0.57914    1.000
    O4       O        0.08387    0.60270    0.64920    1.000
    C9       C        0.13412    0.59273    0.62950    1.000
    C10      C        0.17848    0.62963    0.66730    1.000
    C11      C        0.23289    0.62830    0.64020    1.000
    H7       H        0.24280    0.60300    0.59860    1.000
    C12      C        0.27370    0.66310    0.67260    1.000
    C13      C        0.25820    0.70010    0.73260    1.000
    C14      C        0.20420    0.70090    0.76070    1.000
    H8       H        0.19430    0.72490    0.80380    1.000
    C15      C        0.16340    0.66610    0.72530    1.000
    H9       H        0.12520    0.66820    0.74210    1.000
    C16      C        0.33290    0.66390    0.63680    1.000
    H10      H        0.33550    0.63530    0.59480    1.000
    H11      H        0.36070    0.65560    0.67840    1.000
    H12      H        0.34050    0.70130    0.61420    1.000
    O5       O        0.55676    0.84902    0.07914    1.000
    O6       O        0.60270    0.91613    0.14920    1.000
    C17      C        0.59273    0.86588    0.12950    1.000
    C18      C        0.62963    0.82152    0.16730    1.000
    C19      C        0.62830    0.76711    0.14020    1.000
    H13      H        0.60300    0.75720    0.09860    1.000
    C20      C        0.66310    0.72630    0.17260    1.000
    C21      C        0.70010    0.74180    0.23260    1.000
    C22      C        0.70090    0.79580    0.26070    1.000
    H14      H        0.72490    0.80570    0.30380    1.000
    C23      C        0.66610    0.83660    0.22530    1.000
    H15      H        0.66820    0.87480    0.24210    1.000
    C24      C        0.66390    0.66710    0.13680    1.000
    H16      H        0.63530    0.66450    0.09480    1.000
    H17      H        0.65560    0.63930    0.17840    1.000
    H18      H        0.70130    0.65950    0.11420    1.000
    O7       O        0.44324    0.15098    0.07914    1.000
    O8       O        0.39730    0.08387    0.14920    1.000
    C25      C        0.40727    0.13412    0.12950    1.000
    C26      C        0.37037    0.17848    0.16730    1.000
    C27      C        0.37170    0.23289    0.14020    1.000
    H19      H        0.39700    0.24280    0.09860    1.000
    C28      C        0.33690    0.27370    0.17260    1.000
    C29      C        0.29990    0.25820    0.23260    1.000
    C30      C        0.29910    0.20420    0.26070    1.000
    H20      H        0.27510    0.19430    0.30380    1.000
    C31      C        0.33390    0.16340    0.22530    1.000
    H21      H        0.33180    0.12520    0.24210    1.000
    C32      C        0.33610    0.33290    0.13680    1.000
    H22      H        0.36470    0.33550    0.09480    1.000
    H23      H        0.34440    0.36070    0.17840    1.000
    H24      H        0.29870    0.34050    0.11420    1.000
    O9       O        0.15098    0.44324    0.42086    1.000
    O10      O        0.08387    0.39730    0.35080    1.000
    C33      C        0.13412    0.40727    0.37050    1.000
    C34      C        0.17848    0.37037    0.33270    1.000
    C35      C        0.23289    0.37170    0.35980    1.000
    H25      H        0.24280    0.39700    0.40140    1.000
    C36      C        0.27370    0.33690    0.32740    1.000
    C37      C        0.25820    0.29990    0.26740    1.000
    C38      C        0.20420    0.29910    0.23930    1.000
    H26      H        0.19430    0.27510    0.19620    1.000
    C39      C        0.16340    0.33390    0.27470    1.000
    H27      H        0.12520    0.33180    0.25790    1.000
    C40      C        0.33290    0.33610    0.36320    1.000
    H28      H        0.33550    0.36470    0.40520    1.000
    H29      H        0.36070    0.34440    0.32160    1.000
    H30      H        0.34050    0.29870    0.38580    1.000
    O11      O        0.84902    0.55676    0.42086    1.000
    O12      O        0.91613    0.60270    0.35080    1.000
    C41      C        0.86588    0.59273    0.37050    1.000
    C42      C        0.82152    0.62963    0.33270    1.000
    C43      C        0.76711    0.62830    0.35980    1.000
    H31      H        0.75720    0.60300    0.40140    1.000
    C44      C        0.72630    0.66310    0.32740    1.000
    C45      C        0.74180    0.70010    0.26740    1.000
    C46      C        0.79580    0.70090    0.23930    1.000
    H32      H        0.80570    0.72490    0.19620    1.000
    C47      C        0.83660    0.66610    0.27470    1.000
    H33      H        0.87480    0.66820    0.25790    1.000
    C48      C        0.66710    0.66390    0.36320    1.000
    H34      H        0.66450    0.63530    0.40520    1.000
    H35      H        0.63930    0.65560    0.32160    1.000
    H36      H        0.65950    0.70130    0.38580    1.000
    O13      O        0.44324    0.84902    0.92086    1.000
    O14      O        0.39730    0.91613    0.85080    1.000
    C49      C        0.40727    0.86588    0.87050    1.000
    C50      C        0.37037    0.82152    0.83270    1.000
    C51      C        0.37170    0.76711    0.85980    1.000
    H37      H        0.39700    0.75720    0.90140    1.000
    C52      C        0.33690    0.72630    0.82740    1.000
    C53      C        0.29990    0.74180    0.76740    1.000
    C54      C        0.29910    0.79580    0.73930    1.000
    H38      H        0.27510    0.80570    0.69620    1.000
    C55      C        0.33390    0.83660    0.77470    1.000
    H39      H        0.33180    0.87480    0.75790    1.000
    C56      C        0.33610    0.66710    0.86320    1.000
    H40      H        0.36470    0.66450    0.90520    1.000
    H41      H        0.34440    0.63930    0.82160    1.000
    H42      H        0.29870    0.65950    0.88580    1.000
    O15      O        0.55676    0.15098    0.92086    1.000
    O16      O        0.60270    0.08387    0.85080    1.000
    C57      C        0.59273    0.13412    0.87050    1.000
    C58      C        0.62963    0.17848    0.83270    1.000
    C59      C        0.62830    0.23289    0.85980    1.000
    H43      H        0.60300    0.24280    0.90140    1.000
    C60      C        0.66310    0.27370    0.82740    1.000
    C61      C        0.70010    0.25820    0.76740    1.000
    C62      C        0.70090    0.20420    0.73930    1.000
    H44      H        0.72490    0.19430    0.69620    1.000
    C63      C        0.66610    0.16340    0.77470    1.000
    H45      H        0.66820    0.12520    0.75790    1.000
    C64      C        0.66390    0.33290    0.86320    1.000
    H46      H        0.63530    0.33550    0.90520    1.000
    H47      H        0.65560    0.36070    0.82160    1.000
    H48      H        0.70130    0.34050    0.88580    1.000
    O17      O        0.15098    0.55676    0.42086    1.000
    O18      O        0.08387    0.60270    0.35080    1.000
    C65      C        0.13412    0.59273    0.37050    1.000
    C66      C        0.17848    0.62963    0.33270    1.000
    C67      C        0.23289    0.62830    0.35980    1.000
    H49      H        0.24280    0.60300    0.40140    1.000
    C68      C        0.27370    0.66310    0.32740    1.000
    C69      C        0.25820    0.70010    0.26740    1.000
    C70      C        0.20420    0.70090    0.23930    1.000
    H50      H        0.19430    0.72490    0.19620    1.000
    C71      C        0.16340    0.66610    0.27470    1.000
    H51      H        0.12520    0.66820    0.25790    1.000
    C72      C        0.33290    0.66390    0.36320    1.000
    H52      H        0.33550    0.63530    0.40520    1.000
    H53      H        0.36070    0.65560    0.32160    1.000
    H54      H        0.34050    0.70130    0.38580    1.000
    O19      O        0.84902    0.44324    0.42086    1.000
    O20      O        0.91613    0.39730    0.35080    1.000
    C73      C        0.86588    0.40727    0.37050    1.000
    C74      C        0.82152    0.37037    0.33270    1.000
    C75      C        0.76711    0.37170    0.35980    1.000
    H55      H        0.75720    0.39700    0.40140    1.000
    C76      C        0.72630    0.33690    0.32740    1.000
    C77      C        0.74180    0.29990    0.26740    1.000
    C78      C        0.79580    0.29910    0.23930    1.000
    H56      H        0.80570    0.27510    0.19620    1.000
    C79      C        0.83660    0.33390    0.27470    1.000
    H57      H        0.87480    0.33180    0.25790    1.000
    C80      C        0.66710    0.33610    0.36320    1.000
    H58      H        0.66450    0.36470    0.40520    1.000
    H59      H        0.63930    0.34440    0.32160    1.000
    H60      H        0.65950    0.29870    0.38580    1.000
    O21      O        0.44324    0.15098    0.92086    1.000
    O22      O        0.39730    0.08387    0.85080    1.000
    C81      C        0.40727    0.13412    0.87050    1.000
    C82      C        0.37037    0.17848    0.83270    1.000
    C83      C        0.37170    0.23289    0.85980    1.000
    H61      H        0.39700    0.24280    0.90140    1.000
    C84      C        0.33690    0.27370    0.82740    1.000
    C85      C        0.29990    0.25820    0.76740    1.000
    C86      C        0.29910    0.20420    0.73930    1.000
    H62      H        0.27510    0.19430    0.69620    1.000
    C87      C        0.33390    0.16340    0.77470    1.000
    H63      H        0.33180    0.12520    0.75790    1.000
    C88      C        0.33610    0.33290    0.86320    1.000
    H64      H        0.36470    0.33550    0.90520    1.000
    H65      H        0.34440    0.36070    0.82160    1.000
    H66      H        0.29870    0.34050    0.88580    1.000
    O23      O        0.55676    0.84902    0.92086    1.000
    O24      O        0.60270    0.91613    0.85080    1.000
    C89      C        0.59273    0.86588    0.87050    1.000
    C90      C        0.62963    0.82152    0.83270    1.000
    C91      C        0.62830    0.76711    0.85980    1.000
    H67      H        0.60300    0.75720    0.90140    1.000
    C92      C        0.66310    0.72630    0.82740    1.000
    C93      C        0.70010    0.74180    0.76740    1.000
    C94      C        0.70090    0.79580    0.73930    1.000
    H68      H        0.72490    0.80570    0.69620    1.000
    C95      C        0.66610    0.83660    0.77470    1.000
    H69      H        0.66820    0.87480    0.75790    1.000
    C96      C        0.66390    0.66710    0.86320    1.000
    H70      H        0.63530    0.66450    0.90520    1.000
    H71      H        0.65560    0.63930    0.82160    1.000
    H72      H        0.70130    0.65950    0.88580    1.000
    O25      O        0.84902    0.55676    0.57914    1.000
    O26      O        0.91613    0.60270    0.64920    1.000
    C97      C        0.86588    0.59273    0.62950    1.000
    C98      C        0.82152    0.62963    0.66730    1.000
    C99      C        0.76711    0.62830    0.64020    1.000
    H73      H        0.75720    0.60300    0.59860    1.000
    C100     C        0.72630    0.66310    0.67260    1.000
    C101     C        0.74180    0.70010    0.73260    1.000
    C102     C        0.79580    0.70090    0.76070    1.000
    H74      H        0.80570    0.72490    0.80380    1.000
    C103     C        0.83660    0.66610    0.72530    1.000
    H75      H        0.87480    0.66820    0.74210    1.000
    C104     C        0.66710    0.66390    0.63680    1.000
    H76      H        0.66450    0.63530    0.59480    1.000
    H77      H        0.63930    0.65560    0.67840    1.000
    H78      H        0.65950    0.70130    0.61420    1.000
    O27      O        0.15098    0.44324    0.57914    1.000
    O28      O        0.08387    0.39730    0.64920    1.000
    C105     C        0.13412    0.40727    0.62950    1.000
    C106     C        0.17848    0.37037    0.66730    1.000
    C107     C        0.23289    0.37170    0.64020    1.000
    H79      H        0.24280    0.39700    0.59860    1.000
    C108     C        0.27370    0.33690    0.67260    1.000
    C109     C        0.25820    0.29990    0.73260    1.000
    C110     C        0.20420    0.29910    0.76070    1.000
    H80      H        0.19430    0.27510    0.80380    1.000
    C111     C        0.16340    0.33390    0.72530    1.000
    H81      H        0.12520    0.33180    0.74210    1.000
    C112     C        0.33290    0.33610    0.63680    1.000
    H82      H        0.33550    0.36470    0.59480    1.000
    H83      H        0.36070    0.34440    0.67840    1.000
    H84      H        0.34050    0.29870    0.61420    1.000
    O29      O        0.55676    0.15098    0.07914    1.000
    O30      O        0.60270    0.08387    0.14920    1.000
    C113     C        0.59273    0.13412    0.12950    1.000
    C114     C        0.62963    0.17848    0.16730    1.000
    C115     C        0.62830    0.23289    0.14020    1.000
    H85      H        0.60300    0.24280    0.09860    1.000
    C116     C        0.66310    0.27370    0.17260    1.000
    C117     C        0.70010    0.25820    0.23260    1.000
    C118     C        0.70090    0.20420    0.26070    1.000
    H86      H        0.72490    0.19430    0.30380    1.000
    C119     C        0.66610    0.16340    0.22530    1.000
    H87      H        0.66820    0.12520    0.24210    1.000
    C120     C        0.66390    0.33290    0.13680    1.000
    H88      H        0.63530    0.33550    0.09480    1.000
    H89      H        0.65560    0.36070    0.17840    1.000
    H90      H        0.70130    0.34050    0.11420    1.000
    O31      O        0.44324    0.84902    0.07914    1.000
    O32      O        0.39730    0.91613    0.14920    1.000
    C121     C        0.40727    0.86588    0.12950    1.000
    C122     C        0.37037    0.82152    0.16730    1.000
    C123     C        0.37170    0.76711    0.14020    1.000
    H91      H        0.39700    0.75720    0.09860    1.000
    C124     C        0.33690    0.72630    0.17260    1.000
    C125     C        0.29990    0.74180    0.23260    1.000
    C126     C        0.29910    0.79580    0.26070    1.000
    H92      H        0.27510    0.80570    0.30380    1.000
    C127     C        0.33390    0.83660    0.22530    1.000
    H93      H        0.33180    0.87480    0.24210    1.000
    C128     C        0.33610    0.66710    0.13680    1.000
    H94      H        0.36470    0.66450    0.09480    1.000
    H95      H        0.34440    0.63930    0.17840    1.000
    H96      H        0.29870    0.65950    0.11420    1.000
    Zr1      Zr       0.00000    0.42651    0.60484    1.000
    C129     C        0.00000    0.49010    0.85540    1.000
    C130     C        0.00000    0.43780    0.89310    1.000
    H97      H        0.00000    0.40290    0.86410    1.000
    C131     C        0.00000    0.43490    0.97560    1.000
    C132     C        0.00000    0.48410    0.02050    1.000
    C133     C        0.00000    0.53640    0.98290    1.000
    C134     C        0.00000    0.53940    0.90030    1.000
    H98      H        0.00000    0.57470    0.87220    1.000
    C135     C        0.00000    0.48120    0.10310    1.000
    H99      H        0.00000    0.44590    0.13120    1.000
    C136     C        0.00000    0.53040    0.14800    1.000
    C137     C        0.00000    0.58270    0.11040    1.000
    H100     H        0.00000    0.61770    0.13930    1.000
    C138     C        0.00000    0.58570    0.02780    1.000
    C139     C        0.00000    0.52020    0.23660    1.000
    O33      O        0.00000    0.45640    0.72130    1.000
    O34      O        0.00000    0.56320    0.28300    1.000
    O35      O        0.00000    0.46920    0.26220    1.000
    O36      O        0.00000    0.55063    0.74060    1.000
    Zr2      Zr       0.00000    0.57349    0.60484    1.000
    C140     C        0.00000    0.50990    0.85540    1.000
    C141     C        0.00000    0.56220    0.89310    1.000
    H101     H        0.00000    0.59710    0.86410    1.000
    C142     C        0.00000    0.56510    0.97560    1.000
    C143     C        0.00000    0.51590    0.02050    1.000
    C144     C        0.00000    0.46360    0.98290    1.000
    C145     C        0.00000    0.46060    0.90030    1.000
    H102     H        0.00000    0.42530    0.87220    1.000
    C146     C        0.00000    0.51880    0.10310    1.000
    H103     H        0.00000    0.55410    0.13120    1.000
    C147     C        0.00000    0.46960    0.14800    1.000
    C148     C        0.00000    0.41730    0.11040    1.000
    H104     H        0.00000    0.38230    0.13930    1.000
    C149     C        0.00000    0.41430    0.02780    1.000
    C150     C        0.00000    0.47980    0.23660    1.000
    O37      O        0.00000    0.54360    0.72130    1.000
    O38      O        0.00000    0.43680    0.28300    1.000
    O39      O        0.00000    0.53080    0.26220    1.000
    O40      O        0.00000    0.44937    0.74060    1.000
    Zr3      Zr       0.57349    0.00000    0.10484    1.000
    C151     C        0.50990    0.00000    0.35540    1.000
    C152     C        0.56220    0.00000    0.39310    1.000
    H105     H        0.59710    0.00000    0.36410    1.000
    C153     C        0.56510    0.00000    0.47560    1.000
    C154     C        0.51590    0.00000    0.52050    1.000
    C155     C        0.46360    0.00000    0.48290    1.000
    C156     C        0.46060    0.00000    0.40030    1.000
    H106     H        0.42530    0.00000    0.37220    1.000
    C157     C        0.51880    0.00000    0.60310    1.000
    H107     H        0.55410    0.00000    0.63120    1.000
    C158     C        0.46960    0.00000    0.64800    1.000
    C159     C        0.41730    0.00000    0.61040    1.000
    H108     H        0.38230    0.00000    0.63930    1.000
    C160     C        0.41430    0.00000    0.52780    1.000
    C161     C        0.47980    0.00000    0.73660    1.000
    O41      O        0.54360    0.00000    0.22130    1.000
    O42      O        0.43680    0.00000    0.78300    1.000
    O43      O        0.53080    0.00000    0.76220    1.000
    O44      O        0.44937    0.00000    0.24060    1.000
    Zr4      Zr       0.42651    0.00000    0.10484    1.000
    C162     C        0.49010    0.00000    0.35540    1.000
    C163     C        0.43780    0.00000    0.39310    1.000
    H109     H        0.40290    0.00000    0.36410    1.000
    C164     C        0.43490    0.00000    0.47560    1.000
    C165     C        0.48410    0.00000    0.52050    1.000
    C166     C        0.53640    0.00000    0.48290    1.000
    C167     C        0.53940    0.00000    0.40030    1.000
    H110     H        0.57470    0.00000    0.37220    1.000
    C168     C        0.48120    0.00000    0.60310    1.000
    H111     H        0.44590    0.00000    0.63120    1.000
    C169     C        0.53040    0.00000    0.64800    1.000
    C170     C        0.58270    0.00000    0.61040    1.000
    H112     H        0.61770    0.00000    0.63930    1.000
    C171     C        0.58570    0.00000    0.52780    1.000
    C172     C        0.52020    0.00000    0.73660    1.000
    O45      O        0.45640    0.00000    0.22130    1.000
    O46      O        0.56320    0.00000    0.78300    1.000
    O47      O        0.46920    0.00000    0.76220    1.000
    O48      O        0.55063    0.00000    0.24060    1.000
    Zr5      Zr       0.00000    0.42651    0.39516    1.000
    C173     C        0.00000    0.49010    0.14460    1.000
    C174     C        0.00000    0.43780    0.10690    1.000
    H113     H        0.00000    0.40290    0.13590    1.000
    C175     C        0.00000    0.43490    0.02440    1.000
    C176     C        0.00000    0.48410    0.97950    1.000
    C177     C        0.00000    0.53640    0.01710    1.000
    C178     C        0.00000    0.53940    0.09970    1.000
    H114     H        0.00000    0.57470    0.12780    1.000
    C179     C        0.00000    0.48120    0.89690    1.000
    H115     H        0.00000    0.44590    0.86880    1.000
    C180     C        0.00000    0.53040    0.85200    1.000
    C181     C        0.00000    0.58270    0.88960    1.000
    H116     H        0.00000    0.61770    0.86070    1.000
    C182     C        0.00000    0.58570    0.97220    1.000
    C183     C        0.00000    0.52020    0.76340    1.000
    O49      O        0.00000    0.45640    0.27870    1.000
    O50      O        0.00000    0.56320    0.71700    1.000
    O51      O        0.00000    0.46920    0.73780    1.000
    O52      O        0.00000    0.55063    0.25940    1.000
    Zr6      Zr       0.00000    0.57349    0.39516    1.000
    C184     C        0.00000    0.50990    0.14460    1.000
    C185     C        0.00000    0.56220    0.10690    1.000
    H117     H        0.00000    0.59710    0.13590    1.000
    C186     C        0.00000    0.56510    0.02440    1.000
    C187     C        0.00000    0.51590    0.97950    1.000
    C188     C        0.00000    0.46360    0.01710    1.000
    C189     C        0.00000    0.46060    0.09970    1.000
    H118     H        0.00000    0.42530    0.12780    1.000
    C190     C        0.00000    0.51880    0.89690    1.000
    H119     H        0.00000    0.55410    0.86880    1.000
    C191     C        0.00000    0.46960    0.85200    1.000
    C192     C        0.00000    0.41730    0.88960    1.000
    H120     H        0.00000    0.38230    0.86070    1.000
    C193     C        0.00000    0.41430    0.97220    1.000
    C194     C        0.00000    0.47980    0.76340    1.000
    O53      O        0.00000    0.54360    0.27870    1.000
    O54      O        0.00000    0.43680    0.71700    1.000
    O55      O        0.00000    0.53080    0.73780    1.000
    O56      O        0.00000    0.44937    0.25940    1.000
    Zr7      Zr       0.42651    0.00000    0.89516    1.000
    C195     C        0.49010    0.00000    0.64460    1.000
    C196     C        0.43780    0.00000    0.60690    1.000
    H121     H        0.40290    0.00000    0.63590    1.000
    C197     C        0.43490    0.00000    0.52440    1.000
    C198     C        0.48410    0.00000    0.47950    1.000
    C199     C        0.53640    0.00000    0.51710    1.000
    C200     C        0.53940    0.00000    0.59970    1.000
    H122     H        0.57470    0.00000    0.62780    1.000
    C201     C        0.48120    0.00000    0.39690    1.000
    H123     H        0.44590    0.00000    0.36880    1.000
    C202     C        0.53040    0.00000    0.35200    1.000
    C203     C        0.58270    0.00000    0.38960    1.000
    H124     H        0.61770    0.00000    0.36070    1.000
    C204     C        0.58570    0.00000    0.47220    1.000
    C205     C        0.52020    0.00000    0.26340    1.000
    O57      O        0.45640    0.00000    0.77870    1.000
    O58      O        0.56320    0.00000    0.21700    1.000
    O59      O        0.46920    0.00000    0.23780    1.000
    O60      O        0.55063    0.00000    0.75940    1.000
    Zr8      Zr       0.57349    0.00000    0.89516    1.000
    C206     C        0.50990    0.00000    0.64460    1.000
    C207     C        0.56220    0.00000    0.60690    1.000
    H125     H        0.59710    0.00000    0.63590    1.000
    C208     C        0.56510    0.00000    0.52440    1.000
    C209     C        0.51590    0.00000    0.47950    1.000
    C210     C        0.46360    0.00000    0.51710    1.000
    C211     C        0.46060    0.00000    0.59970    1.000
    H126     H        0.42530    0.00000    0.62780    1.000
    C212     C        0.51880    0.00000    0.39690    1.000
    H127     H        0.55410    0.00000    0.36880    1.000
    C213     C        0.46960    0.00000    0.35200    1.000
    C214     C        0.41730    0.00000    0.38960    1.000
    H128     H        0.38230    0.00000    0.36070    1.000
    C215     C        0.41430    0.00000    0.47220    1.000
    C216     C        0.47980    0.00000    0.26340    1.000
    O61      O        0.54360    0.00000    0.77870    1.000
    O62      O        0.43680    0.00000    0.21700    1.000
    O63      O        0.53080    0.00000    0.23780    1.000
    O64      O        0.44937    0.00000    0.75940    1.000
    Zr9      Zr       0.89626    0.50000    0.50000    1.000
    Zr10     Zr       0.10374    0.50000    0.50000    1.000
    Zr11     Zr       0.50000    0.89626    0.00000    1.000
    Zr12     Zr       0.50000    0.10374    0.00000    1.000
    O65      O        0.94965    0.42540    0.50000    1.000
    O66      O        0.05035    0.57460    0.50000    1.000
    O67      O        0.57460    0.94965    0.00000    1.000
    O68      O        0.42540    0.05035    0.00000    1.000
    O69      O        0.05035    0.42540    0.50000    1.000
    O70      O        0.94965    0.57460    0.50000    1.000
    O71      O        0.42540    0.94965    0.00000    1.000
    O72      O        0.57460    0.05035    0.00000    1.000
    O73      O        0.94876    0.50000    0.60190    1.000
    O74      O        0.05124    0.50000    0.60190    1.000
    O75      O        0.50000    0.94876    0.10190    1.000
    O76      O        0.50000    0.05124    0.10190    1.000
    O77      O        0.05124    0.50000    0.39810    1.000
    O78      O        0.94876    0.50000    0.39810    1.000
    O79      O        0.50000    0.94876    0.89810    1.000
    O80      O        0.50000    0.05124    0.89810    1.000
    C217     C        0.00000    0.50000    0.76680    1.000
    C218     C        0.50000    0.00000    0.26680    1.000
    C219     C        0.00000    0.50000    0.23320    1.000
    C220     C        0.50000    0.00000    0.73320    1.000
    H129     H        0.00000    0.39960    0.00000    1.000
    H130     H        0.00000    0.62100    0.00000    1.000
    H131     H        0.00000    0.60040    0.00000    1.000
    H132     H        0.00000    0.37900    0.00000    1.000
    H133     H        0.60040    0.00000    0.50000    1.000
    H134     H        0.37900    0.00000    0.50000    1.000
    H135     H        0.39960    0.00000    0.50000    1.000
    H136     H        0.62100    0.00000    0.50000    1.000
