# CIF file generated by openbabel 3.1.0, see https://openbabel.org
data_I
_chemical_name_common 'image0'
_cell_length_a 6.6552
_cell_length_b 18.3549
_cell_length_c 8.4346
_cell_angle_alpha 90
_cell_angle_beta 90
_cell_angle_gamma 90
_space_group_name_H-M_alt 'P 1'
_space_group_name_Hall 'P 1'
loop_
    _symmetry_equiv_pos_as_xyz
    x,y,z
loop_
    _atom_site_label
    _atom_site_type_symbol
    _atom_site_fract_x
    _atom_site_fract_y
    _atom_site_fract_z
    _atom_site_occupancy
    O1       O        0.32070    0.25808    0.84710    1.000
    O2       O        0.17430    0.18375    0.01890    1.000
    O3       O        0.16560    0.40540    0.76870    1.000
    O4       O        0.48890    0.45012    0.57030    1.000
    C1       C        0.23710    0.24390    0.97530    1.000
    H1       H        0.22000    0.28250    0.04550    1.000
    O5       O        0.82070    0.75808    0.84710    1.000
    O6       O        0.67430    0.68375    0.01890    1.000
    O7       O        0.66560    0.90540    0.76870    1.000
    O8       O        0.98890    0.95012    0.57030    1.000
    C2       C        0.73710    0.74390    0.97530    1.000
    H2       H        0.72000    0.78250    0.04550    1.000
    O9       O        0.67930    0.74192    0.34710    1.000
    O10      O        0.82570    0.81625    0.51890    1.000
    O11      O        0.83440    0.59460    0.26870    1.000
    O12      O        0.51110    0.54988    0.07030    1.000
    C3       C        0.76290    0.75610    0.47530    1.000
    H3       H        0.78000    0.71750    0.54550    1.000
    O13      O        0.17930    0.24192    0.34710    1.000
    O14      O        0.32570    0.31625    0.51890    1.000
    O15      O        0.33440    0.09460    0.26870    1.000
    O16      O        0.01110    0.04988    0.07030    1.000
    C4       C        0.26290    0.25610    0.47530    1.000
    H4       H        0.28000    0.21750    0.54550    1.000
    O17      O        0.67930    0.25808    0.65290    1.000
    O18      O        0.82570    0.18375    0.48110    1.000
    O19      O        0.83440    0.40540    0.73130    1.000
    O20      O        0.51110    0.45012    0.92970    1.000
    C5       C        0.76290    0.24390    0.52470    1.000
    H5       H        0.78000    0.28250    0.45450    1.000
    O21      O        0.17930    0.75808    0.65290    1.000
    O22      O        0.32570    0.68375    0.48110    1.000
    O23      O        0.33440    0.90540    0.73130    1.000
    O24      O        0.01110    0.95012    0.92970    1.000
    C6       C        0.26290    0.74390    0.52470    1.000
    H6       H        0.28000    0.78250    0.45450    1.000
    O25      O        0.32070    0.74192    0.15290    1.000
    O26      O        0.17430    0.81625    0.98110    1.000
    O27      O        0.16560    0.59460    0.23130    1.000
    O28      O        0.48890    0.54988    0.42970    1.000
    C7       C        0.23710    0.75610    0.02470    1.000
    H7       H        0.22000    0.71750    0.95450    1.000
    O29      O        0.82070    0.24192    0.15290    1.000
    O30      O        0.67430    0.31625    0.98110    1.000
    O31      O        0.66560    0.09460    0.23130    1.000
    O32      O        0.98890    0.04988    0.42970    1.000
    C8       C        0.73710    0.25610    0.02470    1.000
    H8       H        0.72000    0.21750    0.95450    1.000
    Er1      Er       0.50000    0.35729    0.75000    1.000
    Er2      Er       0.00000    0.85729    0.75000    1.000
    Er3      Er       0.50000    0.64271    0.25000    1.000
    Er4      Er       0.00000    0.14271    0.25000    1.000
    C9       C        0.00000    0.37430    0.75000    1.000
    H9       H        0.00000    0.32360    0.75000    1.000
    C10      C        0.50000    0.87430    0.75000    1.000
    H10      H        0.50000    0.82360    0.75000    1.000
    C11      C        0.00000    0.62570    0.25000    1.000
    H11      H        0.00000    0.67640    0.25000    1.000
    C12      C        0.50000    0.12570    0.25000    1.000
    H12      H        0.50000    0.17640    0.25000    1.000
    C13      C        0.57410    0.50000    0.50000    1.000
    H13      H        0.71380    0.50000    0.50000    1.000
    C14      C        0.07410    0.00000    0.50000    1.000
    H14      H        0.21380    0.00000    0.50000    1.000
    C15      C        0.42590    0.50000    0.00000    1.000
    H15      H        0.28620    0.50000    0.00000    1.000
    C16      C        0.92590    0.00000    0.00000    1.000
    H16      H        0.78620    0.00000    0.00000    1.000
