# CIF file generated by openbabel 3.1.0, see https://openbabel.org
data_I
_chemical_name_common 'image0'
_cell_length_a 10.9467
_cell_length_b 28.691
_cell_length_c 23.1432
_cell_angle_alpha 90
_cell_angle_beta 102.238
_cell_angle_gamma 90
_space_group_name_H-M_alt 'P 1'
_space_group_name_Hall 'P 1'
loop_
    _symmetry_equiv_pos_as_xyz
    x,y,z
loop_
    _atom_site_label
    _atom_site_type_symbol
    _atom_site_fract_x
    _atom_site_fract_y
    _atom_site_fract_z
    _atom_site_occupancy
    Co1      Co       0.07624    0.54590    0.03726    1.000
    O1       O        0.26250    0.55123    0.05961    1.000
    O2       O        0.05160    0.57471    0.95486    1.000
    O3       O        0.88620    0.51999    0.02032    1.000
    O4       O        0.91140    0.49555    0.88971    1.000
    O5       O        0.51840    0.89378    0.56858    1.000
    C1       C        0.34530    0.56525    0.03350    1.000
    Co2      Co       0.17178    0.62975    0.95133    1.000
    C2       C        0.47370    0.54442    0.05437    1.000
    O6       O        0.33020    0.59331    0.99103    1.000
    C3       C        0.57110    0.55685    0.02780    1.000
    C4       C        0.48920    0.50893    0.09720    1.000
    H1       H        0.56000    0.58090    0.99890    1.000
    C5       C        0.68580    0.53380    0.04370    1.000
    C6       C        0.60350    0.48650    0.11270    1.000
    H2       H        0.42210    0.50040    0.11520    1.000
    C7       C        0.78640    0.54415    0.01080    1.000
    C8       C        0.70260    0.49921    0.08670    1.000
    O7       O        0.62620    0.44914    0.15080    1.000
    O8       O        0.76270    0.57624    0.97294    1.000
    H3       H        0.78140    0.48430    0.09840    1.000
    C9       C        0.52110    0.42773    0.16920    1.000
    Co3      Co       0.87691    0.58988    0.92095    1.000
    H4       H        0.45310    0.42160    0.13440    1.000
    H5       H        0.48860    0.44880    0.19640    1.000
    C10      C        0.56490    0.38270    0.20010    1.000
    O9       O        0.83740    0.65555    0.91189    1.000
    O10      O        0.81650    0.55802    0.84483    1.000
    H6       H        0.63410    0.38920    0.23430    1.000
    H7       H        0.59750    0.36200    0.17260    1.000
    C11      C        0.45980    0.35800    0.22150    1.000
    H8       H        0.07520    0.54990    0.92890    1.000
    C12      C        0.83580    0.51387    0.84780    1.000
    C13      C        0.91990    0.68546    0.90850    1.000
    H9       H        0.49140    0.32890    0.24140    1.000
    H10      H        0.42840    0.37820    0.24930    1.000
    H11      H        0.39190    0.35100    0.18770    1.000
    O11      O        0.03110    0.67684    0.90637    1.000
    O12      O        0.63290    0.84297    0.52840    1.000
    C14      C        0.76650    0.48594    0.79720    1.000
    C15      C        0.88000    0.73560    0.90710    1.000
    C16      C        0.68580    0.50829    0.75200    1.000
    C17      C        0.78330    0.43736    0.79590    1.000
    C18      C        0.96900    0.76982    0.92570    1.000
    C19      C        0.75430    0.74696    0.88960    1.000
    Co4      Co       0.55930    0.54503    0.47127    1.000
    Co5      Co       0.73211    0.62970    0.55921    1.000
    H12      H        0.67560    0.54110    0.75320    1.000
    C20      C        0.61960    0.48297    0.70460    1.000
    C21      C        0.71990    0.41249    0.74680    1.000
    H13      H        0.83660    0.42180    0.82790    1.000
    H14      H        0.05490    0.76180    0.93780    1.000
    C22      C        0.93130    0.81573    0.92650    1.000
    C23      C        0.71860    0.79360    0.88970    1.000
    H15      H        0.69340    0.72330    0.87760    1.000
    O13      O        0.72850    0.55170    0.45245    1.000
    O14      O        0.85680    0.59319    0.52237    1.000
    C24      C        0.53460    0.50870    0.65570    1.000
    C25      C        0.63770    0.43527    0.70070    1.000
    O15      O        0.73090    0.36552    0.73945    1.000
    C26      C        0.02290    0.85345    0.95010    1.000
    C27      C        0.80660    0.82798    0.90760    1.000
    O16      O        0.59250    0.80211    0.87240    1.000
    C28      C        0.83460    0.56670    0.47870    1.000
    O17      O        0.51210    0.55150    0.66654    1.000
    O18      O        0.49170    0.48997    0.60807    1.000
    H16      H        0.59510    0.41830    0.66720    1.000
    C29      C        0.80930    0.34037    0.78670    1.000
    O19      O        0.13120    0.84236    0.97829    1.000
    O20      O        0.98070    0.89449    0.94154    1.000
    H17      H        0.78210    0.85980    0.90700    1.000
    C30      C        0.55360    0.84990    0.86010    1.000
    C31      C        0.94260    0.54907    0.45390    1.000
    O21      O        0.37970    0.52187    0.48447    1.000
    Co6      Co       0.46710    0.58587    0.59241    1.000
    H18      H        0.77550    0.34240    0.82310    1.000
    H19      H        0.89490    0.35350    0.79520    1.000
    C32      C        0.81160    0.28960    0.76670    1.000
    H20      H        0.59870    0.86380    0.83150    1.000
    H21      H        0.57230    0.86850    0.89690    1.000
    C33      C        0.41440    0.84970    0.83460    1.000
    C34      C        0.06400    0.55780    0.48400    1.000
    C35      C        0.91850    0.52226    0.40270    1.000
    O22      O        0.30740    0.57582    0.53750    1.000
    O23      O        0.43880    0.65189    0.60528    1.000
    H22      H        0.84150    0.28850    0.72920    1.000
    H23      H        0.87190    0.27200    0.79670    1.000
    C36      C        0.68570    0.26630    0.75750    1.000
    C37      C        0.33140    0.83370    0.86570    1.000
    C38      C        0.16260    0.53990    0.46220    1.000
    H24      H        0.07930    0.57580    0.51920    1.000
    C39      C        0.01640    0.50540    0.38050    1.000
    H25      H        0.83490    0.51570    0.38320    1.000
    C40      C        0.29290    0.54645    0.49700    1.000
    C41      C        0.51880    0.68352    0.60260    1.000
    H26      H        0.69280    0.23400    0.74480    1.000
    H27      H        0.65630    0.26650    0.79470    1.000
    H28      H        0.62600    0.28310    0.72710    1.000
    H29      H        0.24650    0.83650    0.84170    1.000
    H30      H        0.34930    0.80090    0.87600    1.000
    H31      H        0.33830    0.85210    0.90190    1.000
    C42      C        0.14070    0.51500    0.40900    1.000
    O24      O        0.00530    0.47767    0.33100    1.000
    O25      O        0.62860    0.67703    0.59823    1.000
    C43      C        0.47280    0.73292    0.60460    1.000
    H32      H        0.20840    0.50480    0.39250    1.000
    C44      C        0.88080    0.46960    0.29590    1.000
    C45      C        0.53290    0.76837    0.58120    1.000
    C46      C        0.36910    0.74200    0.62810    1.000
    H33      H        0.82500    0.46010    0.32230    1.000
    H34      H        0.88400    0.44370    0.26800    1.000
    C47      C        0.82690    0.51250    0.26130    1.000
    H35      H        0.60300    0.76180    0.56430    1.000
    C48      C        0.48960    0.81364    0.58270    1.000
    C49      C        0.32560    0.78730    0.62800    1.000
    H36      H        0.32830    0.71750    0.64420    1.000
    H37      H        0.81080    0.53660    0.28940    1.000
    H38      H        0.74580    0.50420    0.23540    1.000
    C50      C        0.91230    0.53310    0.22330    1.000
    C51      C        0.55320    0.85337    0.55800    1.000
    C52      C        0.38710    0.82328    0.60670    1.000
    O26      O        0.21950    0.79302    0.65070    1.000
    H39      H        0.87230    0.56050    0.20220    1.000
    H40      H        0.99220    0.54210    0.24870    1.000
    H41      H        0.92710    0.50970    0.19460    1.000
    H42      H        0.35900    0.85450    0.60840    1.000
    C53      C        0.15010    0.84180    0.63660    1.000
    H43      H        0.19840    0.86640    0.66130    1.000
    H44      H        0.14450    0.85000    0.59460    1.000
    C54      C        0.02030    0.83910    0.64910    1.000
    C55      C        0.92560    0.81510    0.59790    1.000
    H45      H        0.99060    0.87090    0.65510    1.000
    H46      H        0.02370    0.82140    0.68610    1.000
    H47      H        0.84290    0.81410    0.60780    1.000
    H48      H        0.92060    0.83280    0.56130    1.000
    H49      H        0.95360    0.78330    0.59240    1.000
    O27      O        0.29800    0.68084    0.93974    1.000
    H50      H        0.30000    0.70860    0.95800    1.000
    O28      O        0.61030    0.57424    0.55483    1.000
    H51      H        0.66000    0.54940    0.57960    1.000
    O29      O        0.82480    0.60123    0.64170    1.000
    H52      H        0.82600    0.60800    0.67950    1.000
    O30      O        0.86790    0.68460    0.57460    1.000
    C56      C        0.37460    0.82350    0.78470    1.000
    H53      H        0.28350    0.82590    0.77210    1.000
    H54      H        0.41370    0.83510    0.75310    1.000
    H55      H        0.39800    0.79090    0.79310    1.000
    C57      C        0.09960    0.83260    0.70510    1.000
    H56      H        0.13200    0.81600    0.74270    1.000
    H57      H        0.02780    0.81480    0.68230    1.000
    C58      C        0.19940    0.83630    0.67040    1.000
    H58      H        0.17300    0.85770    0.63660    1.000
    H59      H        0.27720    0.84850    0.69570    1.000
    C59      C        0.05800    0.88110    0.71780    1.000
    H60      H        0.99200    0.87890    0.74060    1.000
    H61      H        0.12890    0.89850    0.74060    1.000
    H62      H        0.02510    0.89730    0.68050    1.000
    O31      O        0.84530    0.78730    0.57760    1.000
    O32      O        0.89000    0.67110    0.54900    1.000
    Co7      Co       0.42376    0.04590    0.46274    1.000
    O33      O        0.23750    0.05123    0.44039    1.000
    O34      O        0.44840    0.07471    0.54514    1.000
    O35      O        0.61380    0.01999    0.47968    1.000
    O36      O        0.58860    0.99555    0.61029    1.000
    O37      O        0.98160    0.39378    0.93142    1.000
    C60      C        0.15470    0.06525    0.46650    1.000
    Co8      Co       0.32822    0.12975    0.54867    1.000
    C61      C        0.02630    0.04442    0.44563    1.000
    O38      O        0.16980    0.09331    0.50897    1.000
    C62      C        0.92890    0.05685    0.47220    1.000
    C63      C        0.01080    0.00893    0.40280    1.000
    H63      H        0.94000    0.08090    0.50110    1.000
    C64      C        0.81420    0.03380    0.45630    1.000
    C65      C        0.89650    0.98650    0.38730    1.000
    H64      H        0.07790    0.00040    0.38480    1.000
    C66      C        0.71360    0.04415    0.48920    1.000
    C67      C        0.79740    0.99921    0.41330    1.000
    O39      O        0.87380    0.94914    0.34920    1.000
    O40      O        0.73730    0.07624    0.52706    1.000
    H65      H        0.71860    0.98430    0.40160    1.000
    C68      C        0.97890    0.92773    0.33080    1.000
    Co9      Co       0.62309    0.08988    0.57905    1.000
    H66      H        0.04690    0.92160    0.36560    1.000
    H67      H        0.01140    0.94880    0.30360    1.000
    C69      C        0.93510    0.88270    0.29990    1.000
    O41      O        0.66260    0.15555    0.58811    1.000
    O42      O        0.68350    0.05802    0.65517    1.000
    H68      H        0.86590    0.88920    0.26570    1.000
    H69      H        0.90250    0.86200    0.32740    1.000
    C70      C        0.04020    0.85800    0.27850    1.000
    H70      H        0.42480    0.04990    0.57110    1.000
    C71      C        0.66420    0.01387    0.65220    1.000
    C72      C        0.58010    0.18546    0.59150    1.000
    H71      H        0.00860    0.82890    0.25860    1.000
    H72      H        0.07160    0.87820    0.25070    1.000
    H73      H        0.10810    0.85100    0.31230    1.000
    O43      O        0.46890    0.17684    0.59363    1.000
    O44      O        0.86710    0.34297    0.97160    1.000
    C73      C        0.73350    0.98594    0.70280    1.000
    C74      C        0.62000    0.23560    0.59290    1.000
    C75      C        0.81420    0.00829    0.74800    1.000
    C76      C        0.71670    0.93736    0.70410    1.000
    C77      C        0.53100    0.26982    0.57430    1.000
    C78      C        0.74570    0.24696    0.61040    1.000
    Co10     Co       0.94070    0.04503    0.02873    1.000
    Co11     Co       0.76789    0.12970    0.94079    1.000
    H74      H        0.82440    0.04110    0.74680    1.000
    C79      C        0.88040    0.98297    0.79540    1.000
    C80      C        0.78010    0.91249    0.75320    1.000
    H75      H        0.66340    0.92180    0.67210    1.000
    H76      H        0.44510    0.26180    0.56220    1.000
    C81      C        0.56870    0.31573    0.57350    1.000
    C82      C        0.78140    0.29360    0.61030    1.000
    H77      H        0.80660    0.22330    0.62240    1.000
    O45      O        0.77150    0.05170    0.04755    1.000
    O46      O        0.64320    0.09319    0.97763    1.000
    C83      C        0.96540    0.00870    0.84430    1.000
    C84      C        0.86230    0.93527    0.79930    1.000
    O47      O        0.76910    0.86552    0.76055    1.000
    C85      C        0.47710    0.35345    0.54990    1.000
    C86      C        0.69340    0.32798    0.59240    1.000
    O48      O        0.90750    0.30211    0.62760    1.000
    C87      C        0.66540    0.06670    0.02130    1.000
    O49      O        0.98790    0.05150    0.83346    1.000
    O50      O        0.00830    0.98997    0.89193    1.000
    H78      H        0.90490    0.91830    0.83280    1.000
    C88      C        0.69070    0.84037    0.71330    1.000
    O51      O        0.36880    0.34236    0.52171    1.000
    O52      O        0.51930    0.39449    0.55846    1.000
    H79      H        0.71790    0.35980    0.59300    1.000
    C89      C        0.94640    0.34990    0.63990    1.000
    C90      C        0.55740    0.04907    0.04610    1.000
    O53      O        0.12030    0.02187    0.01553    1.000
    Co12     Co       0.03290    0.08587    0.90759    1.000
    H80      H        0.72450    0.84240    0.67690    1.000
    H81      H        0.60510    0.85350    0.70480    1.000
    C91      C        0.68840    0.78960    0.73330    1.000
    H82      H        0.90130    0.36380    0.66850    1.000
    H83      H        0.92770    0.36850    0.60310    1.000
    C92      C        0.08560    0.34970    0.66540    1.000
    C93      C        0.43600    0.05780    0.01600    1.000
    C94      C        0.58150    0.02226    0.09730    1.000
    O54      O        0.19260    0.07582    0.96250    1.000
    O55      O        0.06120    0.15189    0.89472    1.000
    H84      H        0.65850    0.78850    0.77080    1.000
    H85      H        0.62810    0.77200    0.70330    1.000
    C95      C        0.81430    0.76630    0.74250    1.000
    C96      C        0.16860    0.33370    0.63430    1.000
    C97      C        0.33740    0.03990    0.03780    1.000
    H86      H        0.42070    0.07580    0.98080    1.000
    C98      C        0.48360    0.00540    0.11950    1.000
    H87      H        0.66510    0.01570    0.11680    1.000
    C99      C        0.20710    0.04645    0.00300    1.000
    C100     C        0.98120    0.18352    0.89740    1.000
    H88      H        0.80720    0.73400    0.75520    1.000
    H89      H        0.84370    0.76650    0.70530    1.000
    H90      H        0.87400    0.78310    0.77290    1.000
    H91      H        0.25350    0.33650    0.65830    1.000
    H92      H        0.15070    0.30090    0.62400    1.000
    H93      H        0.16170    0.35210    0.59810    1.000
    C101     C        0.35930    0.01500    0.09100    1.000
    O56      O        0.49470    0.97767    0.16900    1.000
    O57      O        0.87140    0.17703    0.90177    1.000
    C102     C        0.02720    0.23292    0.89540    1.000
    H94      H        0.29160    0.00480    0.10750    1.000
    C103     C        0.61920    0.96960    0.20410    1.000
    C104     C        0.96710    0.26837    0.91880    1.000
    C105     C        0.13090    0.24200    0.87190    1.000
    H95      H        0.67500    0.96010    0.17770    1.000
    H96      H        0.61600    0.94370    0.23200    1.000
    C106     C        0.67310    0.01250    0.23870    1.000
    H97      H        0.89700    0.26180    0.93570    1.000
    C107     C        0.01040    0.31364    0.91730    1.000
    C108     C        0.17440    0.28730    0.87200    1.000
    H98      H        0.17170    0.21750    0.85580    1.000
    H99      H        0.68920    0.03660    0.21060    1.000
    H100     H        0.75420    0.00420    0.26460    1.000
    C109     C        0.58770    0.03310    0.27670    1.000
    C110     C        0.94680    0.35337    0.94200    1.000
    C111     C        0.11290    0.32328    0.89330    1.000
    O58      O        0.28050    0.29302    0.84930    1.000
    H101     H        0.62770    0.06050    0.29780    1.000
    H102     H        0.50780    0.04210    0.25130    1.000
    H103     H        0.57290    0.00970    0.30540    1.000
    H104     H        0.14100    0.35450    0.89160    1.000
    C112     C        0.34990    0.34180    0.86340    1.000
    H105     H        0.30160    0.36640    0.83870    1.000
    H106     H        0.35550    0.35000    0.90540    1.000
    C113     C        0.47970    0.33910    0.85090    1.000
    C114     C        0.57440    0.31510    0.90210    1.000
    H107     H        0.50940    0.37090    0.84490    1.000
    H108     H        0.47630    0.32140    0.81390    1.000
    H109     H        0.65710    0.31410    0.89220    1.000
    H110     H        0.57940    0.33280    0.93870    1.000
    H111     H        0.54640    0.28330    0.90760    1.000
    O59      O        0.20200    0.18084    0.56026    1.000
    H112     H        0.20000    0.20860    0.54200    1.000
    O60      O        0.88970    0.07424    0.94517    1.000
    H113     H        0.84000    0.04940    0.92040    1.000
    O61      O        0.67520    0.10123    0.85830    1.000
    H114     H        0.67400    0.10800    0.82050    1.000
    O62      O        0.63210    0.18460    0.92540    1.000
    C115     C        0.12540    0.32350    0.71530    1.000
    H115     H        0.21650    0.32590    0.72790    1.000
    H116     H        0.08630    0.33510    0.74690    1.000
    H117     H        0.10200    0.29090    0.70690    1.000
    C116     C        0.40040    0.33260    0.79490    1.000
    H118     H        0.36800    0.31600    0.75730    1.000
    H119     H        0.47220    0.31480    0.81770    1.000
    C117     C        0.30060    0.33630    0.82960    1.000
    H120     H        0.32700    0.35770    0.86340    1.000
    H121     H        0.22280    0.34850    0.80430    1.000
    C118     C        0.44200    0.38110    0.78220    1.000
    H122     H        0.50800    0.37890    0.75940    1.000
    H123     H        0.37110    0.39850    0.75940    1.000
    H124     H        0.47490    0.39730    0.81950    1.000
    O63      O        0.65470    0.28730    0.92240    1.000
    O64      O        0.61000    0.17110    0.95100    1.000
    Co13     Co       0.92376    0.45410    0.96274    1.000
    O65      O        0.73750    0.44877    0.94039    1.000
    O66      O        0.94840    0.42529    0.04514    1.000
    O67      O        0.11380    0.48001    0.97968    1.000
    O68      O        0.08860    0.50445    0.11029    1.000
    O69      O        0.48160    0.10622    0.43142    1.000
    C119     C        0.65470    0.43475    0.96650    1.000
    Co14     Co       0.82822    0.37025    0.04867    1.000
    C120     C        0.52630    0.45558    0.94563    1.000
    O70      O        0.66980    0.40669    0.00897    1.000
    C121     C        0.42890    0.44315    0.97220    1.000
    C122     C        0.51080    0.49107    0.90280    1.000
    H125     H        0.44000    0.41910    0.00110    1.000
    C123     C        0.31420    0.46620    0.95630    1.000
    C124     C        0.39650    0.51350    0.88730    1.000
    H126     H        0.57790    0.49960    0.88480    1.000
    C125     C        0.21360    0.45585    0.98920    1.000
    C126     C        0.29740    0.50079    0.91330    1.000
    O71      O        0.37380    0.55086    0.84920    1.000
    O72      O        0.23730    0.42376    0.02706    1.000
    H127     H        0.21860    0.51570    0.90160    1.000
    C127     C        0.47890    0.57227    0.83080    1.000
    Co15     Co       0.12309    0.41012    0.07905    1.000
    H128     H        0.54690    0.57840    0.86560    1.000
    H129     H        0.51140    0.55120    0.80360    1.000
    C128     C        0.43510    0.61730    0.79990    1.000
    O73      O        0.16260    0.34445    0.08811    1.000
    O74      O        0.18350    0.44198    0.15517    1.000
    H130     H        0.36590    0.61080    0.76570    1.000
    H131     H        0.40250    0.63800    0.82740    1.000
    C129     C        0.54020    0.64200    0.77850    1.000
    H132     H        0.92480    0.45010    0.07110    1.000
    C130     C        0.16420    0.48613    0.15220    1.000
    C131     C        0.08010    0.31454    0.09150    1.000
    H133     H        0.50860    0.67110    0.75860    1.000
    H134     H        0.57160    0.62180    0.75070    1.000
    H135     H        0.60810    0.64900    0.81230    1.000
    O75      O        0.96890    0.32316    0.09363    1.000
    O76      O        0.36710    0.15703    0.47160    1.000
    C132     C        0.23350    0.51406    0.20280    1.000
    C133     C        0.12000    0.26440    0.09290    1.000
    C134     C        0.31420    0.49171    0.24800    1.000
    C135     C        0.21670    0.56264    0.20410    1.000
    C136     C        0.03100    0.23018    0.07430    1.000
    C137     C        0.24570    0.25304    0.11040    1.000
    Co16     Co       0.44070    0.45497    0.52873    1.000
    Co17     Co       0.26789    0.37030    0.44079    1.000
    H136     H        0.32440    0.45890    0.24680    1.000
    C138     C        0.38040    0.51703    0.29540    1.000
    C139     C        0.28010    0.58751    0.25320    1.000
    H137     H        0.16340    0.57820    0.17210    1.000
    H138     H        0.94510    0.23820    0.06220    1.000
    C140     C        0.06870    0.18427    0.07350    1.000
    C141     C        0.28140    0.20640    0.11030    1.000
    H139     H        0.30660    0.27670    0.12240    1.000
    O77      O        0.27150    0.44830    0.54755    1.000
    O78      O        0.14320    0.40681    0.47763    1.000
    C142     C        0.46540    0.49130    0.34430    1.000
    C143     C        0.36230    0.56473    0.29930    1.000
    O79      O        0.26910    0.63448    0.26055    1.000
    C144     C        0.97710    0.14655    0.04990    1.000
    C145     C        0.19340    0.17202    0.09240    1.000
    O80      O        0.40750    0.19789    0.12760    1.000
    C146     C        0.16540    0.43330    0.52130    1.000
    O81      O        0.48790    0.44850    0.33346    1.000
    O82      O        0.50830    0.51003    0.39193    1.000
    H140     H        0.40490    0.58170    0.33280    1.000
    C147     C        0.19070    0.65963    0.21330    1.000
    O83      O        0.86880    0.15764    0.02171    1.000
    O84      O        0.01930    0.10551    0.05846    1.000
    H141     H        0.21790    0.14020    0.09300    1.000
    C148     C        0.44640    0.15010    0.13990    1.000
    C149     C        0.05740    0.45093    0.54610    1.000
    O85      O        0.62030    0.47813    0.51553    1.000
    Co18     Co       0.53290    0.41413    0.40759    1.000
    H142     H        0.22450    0.65760    0.17690    1.000
    H143     H        0.10510    0.64650    0.20480    1.000
    C150     C        0.18840    0.71040    0.23330    1.000
    H144     H        0.40130    0.13620    0.16850    1.000
    H145     H        0.42770    0.13150    0.10310    1.000
    C151     C        0.58560    0.15030    0.16540    1.000
    C152     C        0.93600    0.44220    0.51600    1.000
    C153     C        0.08150    0.47774    0.59730    1.000
    O86      O        0.69260    0.42418    0.46250    1.000
    O87      O        0.56120    0.34811    0.39472    1.000
    H146     H        0.15850    0.71150    0.27080    1.000
    H147     H        0.12810    0.72800    0.20330    1.000
    C154     C        0.31430    0.73370    0.24250    1.000
    C155     C        0.66860    0.16630    0.13430    1.000
    C156     C        0.83740    0.46010    0.53780    1.000
    H148     H        0.92070    0.42420    0.48080    1.000
    C157     C        0.98360    0.49460    0.61950    1.000
    H149     H        0.16510    0.48430    0.61680    1.000
    C158     C        0.70710    0.45355    0.50300    1.000
    C159     C        0.48120    0.31648    0.39740    1.000
    H150     H        0.30720    0.76600    0.25520    1.000
    H151     H        0.34370    0.73350    0.20530    1.000
    H152     H        0.37400    0.71690    0.27290    1.000
    H153     H        0.75350    0.16350    0.15830    1.000
    H154     H        0.65070    0.19910    0.12400    1.000
    H155     H        0.66170    0.14790    0.09810    1.000
    C160     C        0.85930    0.48500    0.59100    1.000
    O88      O        0.99470    0.52233    0.66900    1.000
    O89      O        0.37140    0.32297    0.40177    1.000
    C161     C        0.52720    0.26708    0.39540    1.000
    H156     H        0.79160    0.49520    0.60750    1.000
    C162     C        0.11920    0.53040    0.70410    1.000
    C163     C        0.46710    0.23163    0.41880    1.000
    C164     C        0.63090    0.25800    0.37190    1.000
    H157     H        0.17500    0.53990    0.67770    1.000
    H158     H        0.11600    0.55630    0.73200    1.000
    C165     C        0.17310    0.48750    0.73870    1.000
    H159     H        0.39700    0.23820    0.43570    1.000
    C166     C        0.51040    0.18636    0.41730    1.000
    C167     C        0.67440    0.21270    0.37200    1.000
    H160     H        0.67170    0.28250    0.35580    1.000
    H161     H        0.18920    0.46340    0.71060    1.000
    H162     H        0.25420    0.49580    0.76460    1.000
    C168     C        0.08770    0.46690    0.77670    1.000
    C169     C        0.44680    0.14663    0.44200    1.000
    C170     C        0.61290    0.17672    0.39330    1.000
    O90      O        0.78050    0.20698    0.34930    1.000
    H163     H        0.12770    0.43950    0.79780    1.000
    H164     H        0.00780    0.45790    0.75130    1.000
    H165     H        0.07290    0.49030    0.80540    1.000
    H166     H        0.64100    0.14550    0.39160    1.000
    C171     C        0.84990    0.15820    0.36340    1.000
    H167     H        0.80160    0.13360    0.33870    1.000
    H168     H        0.85550    0.15000    0.40540    1.000
    C172     C        0.97970    0.16090    0.35090    1.000
    C173     C        0.07440    0.18490    0.40210    1.000
    H169     H        0.00940    0.12910    0.34490    1.000
    H170     H        0.97630    0.17860    0.31390    1.000
    H171     H        0.15710    0.18590    0.39220    1.000
    H172     H        0.07940    0.16720    0.43870    1.000
    H173     H        0.04640    0.21670    0.40760    1.000
    O91      O        0.70200    0.31916    0.06026    1.000
    H174     H        0.70000    0.29140    0.04200    1.000
    O92      O        0.38970    0.42576    0.44517    1.000
    H175     H        0.34000    0.45060    0.42040    1.000
    O93      O        0.17520    0.39877    0.35830    1.000
    H176     H        0.17400    0.39200    0.32050    1.000
    O94      O        0.13210    0.31540    0.42540    1.000
    C174     C        0.62540    0.17650    0.21530    1.000
    H177     H        0.71650    0.17410    0.22790    1.000
    H178     H        0.58630    0.16490    0.24690    1.000
    H179     H        0.60200    0.20910    0.20690    1.000
    C175     C        0.90040    0.16740    0.29490    1.000
    H180     H        0.86800    0.18400    0.25730    1.000
    H181     H        0.97220    0.18520    0.31770    1.000
    C176     C        0.80060    0.16370    0.32960    1.000
    H182     H        0.82700    0.14230    0.36340    1.000
    H183     H        0.72280    0.15150    0.30430    1.000
    C177     C        0.94200    0.11890    0.28220    1.000
    H184     H        0.00800    0.12110    0.25940    1.000
    H185     H        0.87110    0.10150    0.25940    1.000
    H186     H        0.97490    0.10270    0.31950    1.000
    O95      O        0.15470    0.21270    0.42240    1.000
    O96      O        0.11000    0.32890    0.45100    1.000
    Co19     Co       0.57624    0.95410    0.53726    1.000
    O97      O        0.76250    0.94877    0.55961    1.000
    O98      O        0.55160    0.92529    0.45486    1.000
    O99      O        0.38620    0.98001    0.52032    1.000
    O100     O        0.41140    0.00445    0.38971    1.000
    O101     O        0.01840    0.60622    0.06858    1.000
    C178     C        0.84530    0.93475    0.53350    1.000
    Co20     Co       0.67178    0.87025    0.45133    1.000
    C179     C        0.97370    0.95558    0.55437    1.000
    O102     O        0.83020    0.90669    0.49103    1.000
    C180     C        0.07110    0.94315    0.52780    1.000
    C181     C        0.98920    0.99107    0.59720    1.000
    H187     H        0.06000    0.91910    0.49890    1.000
    C182     C        0.18580    0.96620    0.54370    1.000
    C183     C        0.10350    0.01350    0.61270    1.000
    H188     H        0.92210    0.99960    0.61520    1.000
    C184     C        0.28640    0.95585    0.51080    1.000
    C185     C        0.20260    0.00079    0.58670    1.000
    O103     O        0.12620    0.05086    0.65080    1.000
    O104     O        0.26270    0.92376    0.47294    1.000
    H189     H        0.28140    0.01570    0.59840    1.000
    C186     C        0.02110    0.07227    0.66920    1.000
    Co21     Co       0.37691    0.91012    0.42095    1.000
    H190     H        0.95310    0.07840    0.63440    1.000
    H191     H        0.98860    0.05120    0.69640    1.000
    C187     C        0.06490    0.11730    0.70010    1.000
    O105     O        0.33740    0.84445    0.41189    1.000
    O106     O        0.31650    0.94198    0.34483    1.000
    H192     H        0.13410    0.11080    0.73430    1.000
    H193     H        0.09750    0.13800    0.67260    1.000
    C188     C        0.95980    0.14200    0.72150    1.000
    H194     H        0.57520    0.95010    0.42890    1.000
    C189     C        0.33580    0.98613    0.34780    1.000
    C190     C        0.41990    0.81454    0.40850    1.000
    H195     H        0.99140    0.17110    0.74140    1.000
    H196     H        0.92840    0.12180    0.74930    1.000
    H197     H        0.89190    0.14900    0.68770    1.000
    O107     O        0.53110    0.82316    0.40637    1.000
    O108     O        0.13290    0.65703    0.02840    1.000
    C191     C        0.26650    0.01406    0.29720    1.000
    C192     C        0.38000    0.76440    0.40710    1.000
    C193     C        0.18580    0.99171    0.25200    1.000
    C194     C        0.28330    0.06264    0.29590    1.000
    C195     C        0.46900    0.73018    0.42570    1.000
    C196     C        0.25430    0.75304    0.38960    1.000
    Co22     Co       0.05930    0.95497    0.97127    1.000
    Co23     Co       0.23211    0.87030    0.05921    1.000
    H198     H        0.17560    0.95890    0.25320    1.000
    C197     C        0.11960    0.01703    0.20460    1.000
    C198     C        0.21990    0.08751    0.24680    1.000
    H199     H        0.33660    0.07820    0.32790    1.000
    H200     H        0.55490    0.73820    0.43780    1.000
    C199     C        0.43130    0.68427    0.42650    1.000
    C200     C        0.21860    0.70640    0.38970    1.000
    H201     H        0.19340    0.77670    0.37760    1.000
    O109     O        0.22850    0.94830    0.95245    1.000
    O110     O        0.35680    0.90681    0.02237    1.000
    C201     C        0.03460    0.99130    0.15570    1.000
    C202     C        0.13770    0.06473    0.20070    1.000
    O111     O        0.23090    0.13448    0.23945    1.000
    C203     C        0.52290    0.64655    0.45010    1.000
    C204     C        0.30660    0.67202    0.40760    1.000
    O112     O        0.09250    0.69789    0.37240    1.000
    C205     C        0.33460    0.93330    0.97870    1.000
    O113     O        0.01210    0.94850    0.16654    1.000
    O114     O        0.99170    0.01003    0.10807    1.000
    H202     H        0.09510    0.08170    0.16720    1.000
    C206     C        0.30930    0.15963    0.28670    1.000
    O115     O        0.63120    0.65764    0.47829    1.000
    O116     O        0.48070    0.60551    0.44154    1.000
    H203     H        0.28210    0.64020    0.40700    1.000
    C207     C        0.05360    0.65010    0.36010    1.000
    C208     C        0.44260    0.95093    0.95390    1.000
    O117     O        0.87970    0.97813    0.98447    1.000
    Co24     Co       0.96710    0.91413    0.09241    1.000
    H204     H        0.27550    0.15760    0.32310    1.000
    H205     H        0.39490    0.14650    0.29520    1.000
    C209     C        0.31160    0.21040    0.26670    1.000
    H206     H        0.09870    0.63620    0.33150    1.000
    H207     H        0.07230    0.63150    0.39690    1.000
    C210     C        0.91440    0.65030    0.33460    1.000
    C211     C        0.56400    0.94220    0.98400    1.000
    C212     C        0.41850    0.97774    0.90270    1.000
    O118     O        0.80740    0.92418    0.03750    1.000
    O119     O        0.93880    0.84811    0.10528    1.000
    H208     H        0.34150    0.21150    0.22920    1.000
    H209     H        0.37190    0.22800    0.29670    1.000
    C213     C        0.18570    0.23370    0.25750    1.000
    C214     C        0.83140    0.66630    0.36570    1.000
    C215     C        0.66260    0.96010    0.96220    1.000
    H210     H        0.57930    0.92420    0.01920    1.000
    C216     C        0.51640    0.99460    0.88050    1.000
    H211     H        0.33490    0.98430    0.88320    1.000
    C217     C        0.79290    0.95355    0.99700    1.000
    C218     C        0.01880    0.81648    0.10260    1.000
    H212     H        0.19280    0.26600    0.24480    1.000
    H213     H        0.15630    0.23350    0.29470    1.000
    H214     H        0.12600    0.21690    0.22710    1.000
    H215     H        0.74650    0.66350    0.34170    1.000
    H216     H        0.84930    0.69910    0.37600    1.000
    H217     H        0.83830    0.64790    0.40190    1.000
    C219     C        0.64070    0.98500    0.90900    1.000
    O120     O        0.50530    0.02233    0.83100    1.000
    O121     O        0.12860    0.82297    0.09823    1.000
    C220     C        0.97280    0.76708    0.10460    1.000
    H218     H        0.70840    0.99520    0.89250    1.000
    C221     C        0.38080    0.03040    0.79590    1.000
    C222     C        0.03290    0.73163    0.08120    1.000
    C223     C        0.86910    0.75800    0.12810    1.000
    H219     H        0.32500    0.03990    0.82230    1.000
    H220     H        0.38400    0.05630    0.76800    1.000
    C224     C        0.32690    0.98750    0.76130    1.000
    H221     H        0.10300    0.73820    0.06430    1.000
    C225     C        0.98960    0.68636    0.08270    1.000
    C226     C        0.82560    0.71270    0.12800    1.000
    H222     H        0.82830    0.78250    0.14420    1.000
    H223     H        0.31080    0.96340    0.78940    1.000
    H224     H        0.24580    0.99580    0.73540    1.000
    C227     C        0.41230    0.96690    0.72330    1.000
    C228     C        0.05320    0.64663    0.05800    1.000
    C229     C        0.88710    0.67672    0.10670    1.000
    O122     O        0.71950    0.70698    0.15070    1.000
    H225     H        0.37230    0.93950    0.70220    1.000
    H226     H        0.49220    0.95790    0.74870    1.000
    H227     H        0.42710    0.99030    0.69460    1.000
    H228     H        0.85900    0.64550    0.10840    1.000
    C230     C        0.65010    0.65820    0.13660    1.000
    H229     H        0.69840    0.63360    0.16130    1.000
    H230     H        0.64450    0.65000    0.09460    1.000
    C231     C        0.52030    0.66090    0.14910    1.000
    C232     C        0.42560    0.68490    0.09790    1.000
    H231     H        0.49060    0.62910    0.15510    1.000
    H232     H        0.52370    0.67860    0.18610    1.000
    H233     H        0.34290    0.68590    0.10780    1.000
    H234     H        0.42060    0.66720    0.06130    1.000
    H235     H        0.45360    0.71670    0.09240    1.000
    O123     O        0.79800    0.81916    0.43974    1.000
    H236     H        0.80000    0.79140    0.45800    1.000
    O124     O        0.11030    0.92576    0.05483    1.000
    H237     H        0.16000    0.95060    0.07960    1.000
    O125     O        0.32480    0.89877    0.14170    1.000
    H238     H        0.32600    0.89200    0.17950    1.000
    O126     O        0.36790    0.81540    0.07460    1.000
    C233     C        0.87460    0.67650    0.28470    1.000
    H239     H        0.78350    0.67410    0.27210    1.000
    H240     H        0.91370    0.66490    0.25310    1.000
    H241     H        0.89800    0.70910    0.29310    1.000
    C234     C        0.59960    0.66740    0.20510    1.000
    H242     H        0.63200    0.68400    0.24270    1.000
    H243     H        0.52780    0.68520    0.18230    1.000
    C235     C        0.69940    0.66370    0.17040    1.000
    H244     H        0.67300    0.64230    0.13660    1.000
    H245     H        0.77720    0.65150    0.19570    1.000
    C236     C        0.55800    0.61890    0.21780    1.000
    H246     H        0.49200    0.62110    0.24060    1.000
    H247     H        0.62890    0.60150    0.24060    1.000
    H248     H        0.52510    0.60270    0.18050    1.000
    O127     O        0.34530    0.71270    0.07760    1.000
    O128     O        0.39000    0.82890    0.04900    1.000
