# CIF file generated by openbabel 3.1.0, see https://openbabel.org
data_I
_chemical_name_common 'image0'
_cell_length_a 16.0539
_cell_length_b 33.204
_cell_length_c 17.1178
_cell_angle_alpha 90
_cell_angle_beta 90
_cell_angle_gamma 90
_space_group_name_H-M_alt 'P 1'
_space_group_name_Hall 'P 1'
loop_
    _symmetry_equiv_pos_as_xyz
    x,y,z
loop_
    _atom_site_label
    _atom_site_type_symbol
    _atom_site_fract_x
    _atom_site_fract_y
    _atom_site_fract_z
    _atom_site_occupancy
    Tb1      Tb       0.51695    0.05548    0.94707    1.000
    Zn1      Zn       0.72371    0.16036    0.43238    1.000
    Zn2      Zn       0.43365    0.16925    0.67667    1.000
    Zn3      Zn       0.23713    0.00931    0.71333    1.000
    O1       O        0.84490    0.20520    0.23410    1.000
    O2       O        0.80260    0.16270    0.32240    1.000
    O3       O        0.62520    0.17760    0.35260    1.000
    O4       O        0.50060    0.20670    0.34940    1.000
    O5       O        0.36160    0.18980    0.58160    1.000
    O6       O        0.36930    0.20650    0.45860    1.000
    O7       O        0.53600    0.08990    0.83500    1.000
    O8       O        0.51340    0.14470    0.76510    1.000
    O9       O        0.44020    0.01720    0.85800    1.000
    O10      O        0.32740    0.99520    0.80020    1.000
    O11      O        0.14180    0.02040    0.61540    1.000
    O12      O        0.06820    0.98540    0.53170    1.000
    O13      O        0.10550    0.91160    0.45250    1.000
    O14      O        0.18500    0.85960    0.48370    1.000
    N1       N        0.77110    0.21720    0.42840    1.000
    N2       N        0.62410    0.16920    0.50780    1.000
    N3       N        0.52230    0.17540    0.59450    1.000
    N4       N        0.37490    0.11670    0.69860    1.000
    N5       N        0.30530    0.05980    0.71090    1.000
    N6       N        0.24880    0.96080    0.64690    1.000
    N7       N        0.26830    0.90100    0.59110    1.000
    C1       C        0.81840    0.19750    0.30120    1.000
    C2       C        0.79810    0.22860    0.36220    1.000
    C3       C        0.55890    0.19110    0.38490    1.000
    C4       C        0.55400    0.18350    0.47010    1.000
    C5       C        0.49190    0.18720    0.52290    1.000
    C6       C        0.40120    0.19570    0.51860    1.000
    C7       C        0.60330    0.16580    0.58230    1.000
    C8       C        0.66350    0.15460    0.64660    1.000
    H1       H        0.63640    0.13710    0.68310    1.000
    H2       H        0.68160    0.17860    0.67310    1.000
    H3       H        0.71090    0.14120    0.62450    1.000
    C9       C        0.49320    0.11020    0.78780    1.000
    C10      C        0.41600    0.09370    0.75430    1.000
    C11      C        0.37340    0.05850    0.76130    1.000
    C12      C        0.38180    0.02160    0.81070    1.000
    C13      C        0.30960    0.09510    0.67700    1.000
    C14      C        0.24840    0.11020    0.62170    1.000
    H4       H        0.20250    0.12180    0.64960    1.000
    H5       H        0.22880    0.08850    0.58970    1.000
    H6       H        0.27370    0.13040    0.58910    1.000
    C15      C        0.12900    0.98810    0.57660    1.000
    C16      C        0.19030    0.95660    0.58670    1.000
    C17      C        0.20330    0.91860    0.55420    1.000
    C18      C        0.16120    0.89490    0.49400    1.000
    C19      C        0.29180    0.92680    0.64730    1.000
    C20      C        0.36410    0.91840    0.70080    1.000
    H7       H        0.36510    0.93810    0.74190    1.000
    H8       H        0.41510    0.91980    0.67170    1.000
    H9       H        0.35820    0.89200    0.72290    1.000
    N8       N        0.14610    0.01870    0.79480    1.000
    C21      C        0.16510    0.04780    0.85040    1.000
    H10      H        0.21710    0.06010    0.85030    1.000
    C22      C        0.10620    0.05860    0.90610    1.000
    H11      H        0.11890    0.07800    0.94330    1.000
    C23      C        0.02840    0.04020    0.90630    1.000
    C24      C        0.00940    0.01110    0.85070    1.000
    H12      H        0.95730    0.99880    0.85080    1.000
    C25      C        0.06830    0.00030    0.79500    1.000
    H13      H        0.05560    0.98090    0.75780    1.000
    N9       N        0.84530    0.07620    0.07560    1.000
    C26      C        0.91990    0.09710    0.06840    1.000
    H14      H        0.93040    0.11930    0.10020    1.000
    C27      C        0.97880    0.08500    0.01370    1.000
    H15      H        0.02870    0.09900    0.00890    1.000
    C28      C        0.96300    0.05190    0.96630    1.000
    C29      C        0.88850    0.03090    0.97350    1.000
    H16      H        0.87790    0.00880    0.94170    1.000
    C30      C        0.82960    0.04310    0.02810    1.000
    H17      H        0.77970    0.02910    0.03290    1.000
    H18      H        0.76700    0.23850    0.58570    1.000
    H19      H        0.67490    0.23430    0.55640    1.000
    H20      H        0.71390    0.27720    0.56880    1.000
    Tb2      Tb       0.98305    0.94452    0.44707    1.000
    Zn4      Zn       0.77629    0.83964    0.93238    1.000
    Zn5      Zn       0.06635    0.83075    0.17667    1.000
    Zn6      Zn       0.26287    0.99069    0.21333    1.000
    O15      O        0.65510    0.79480    0.73410    1.000
    O16      O        0.69740    0.83730    0.82240    1.000
    O17      O        0.87480    0.82240    0.85260    1.000
    O18      O        0.99940    0.79330    0.84940    1.000
    O19      O        0.13840    0.81020    0.08160    1.000
    O20      O        0.13070    0.79350    0.95860    1.000
    O21      O        0.96400    0.91010    0.33500    1.000
    O22      O        0.98660    0.85530    0.26510    1.000
    O23      O        0.05980    0.98280    0.35800    1.000
    O24      O        0.17260    0.00480    0.30020    1.000
    O25      O        0.35820    0.97960    0.11540    1.000
    O26      O        0.43180    0.01460    0.03170    1.000
    O27      O        0.39450    0.08840    0.95250    1.000
    O28      O        0.31500    0.14040    0.98370    1.000
    N10      N        0.72890    0.78280    0.92840    1.000
    N11      N        0.87590    0.83080    0.00780    1.000
    N12      N        0.97770    0.82460    0.09450    1.000
    N13      N        0.12510    0.88330    0.19860    1.000
    N14      N        0.19470    0.94020    0.21090    1.000
    N15      N        0.25120    0.03920    0.14690    1.000
    N16      N        0.23170    0.09900    0.09110    1.000
    C31      C        0.68160    0.80250    0.80120    1.000
    C32      C        0.70190    0.77140    0.86220    1.000
    C33      C        0.94110    0.80890    0.88490    1.000
    C34      C        0.94600    0.81650    0.97010    1.000
    C35      C        0.00810    0.81280    0.02290    1.000
    C36      C        0.09880    0.80430    0.01860    1.000
    C37      C        0.89670    0.83420    0.08230    1.000
    C38      C        0.83650    0.84540    0.14660    1.000
    H21      H        0.86360    0.86290    0.18310    1.000
    H22      H        0.81840    0.82140    0.17310    1.000
    H23      H        0.78910    0.85880    0.12450    1.000
    C39      C        0.00680    0.88980    0.28780    1.000
    C40      C        0.08400    0.90630    0.25430    1.000
    C41      C        0.12660    0.94150    0.26130    1.000
    C42      C        0.11820    0.97840    0.31070    1.000
    C43      C        0.19040    0.90490    0.17700    1.000
    C44      C        0.25160    0.88980    0.12170    1.000
    H24      H        0.29750    0.87820    0.14960    1.000
    H25      H        0.27120    0.91150    0.08970    1.000
    H26      H        0.22630    0.86960    0.08910    1.000
    C45      C        0.37100    0.01190    0.07660    1.000
    C46      C        0.30970    0.04340    0.08670    1.000
    C47      C        0.29670    0.08140    0.05420    1.000
    C48      C        0.33880    0.10510    0.99400    1.000
    C49      C        0.20820    0.07320    0.14730    1.000
    C50      C        0.13590    0.08160    0.20080    1.000
    H27      H        0.13490    0.06190    0.24190    1.000
    H28      H        0.08490    0.08020    0.17170    1.000
    H29      H        0.14180    0.10800    0.22290    1.000
    N17      N        0.35390    0.98130    0.29480    1.000
    C51      C        0.33490    0.95220    0.35040    1.000
    H30      H        0.28290    0.93990    0.35030    1.000
    C52      C        0.39380    0.94140    0.40610    1.000
    H31      H        0.38110    0.92200    0.44330    1.000
    C53      C        0.47160    0.95980    0.40630    1.000
    C54      C        0.49060    0.98890    0.35070    1.000
    H32      H        0.54270    0.00120    0.35080    1.000
    C55      C        0.43170    0.99970    0.29500    1.000
    H33      H        0.44440    0.01910    0.25780    1.000
    N18      N        0.65470    0.92380    0.57560    1.000
    C56      C        0.58010    0.90290    0.56840    1.000
    H34      H        0.56960    0.88070    0.60020    1.000
    C57      C        0.52120    0.91500    0.51370    1.000
    H35      H        0.47130    0.90100    0.50890    1.000
    C58      C        0.53700    0.94810    0.46630    1.000
    C59      C        0.61150    0.96910    0.47350    1.000
    H36      H        0.62210    0.99120    0.44170    1.000
    C60      C        0.67040    0.95690    0.52810    1.000
    H37      H        0.72030    0.97090    0.53290    1.000
    H38      H        0.73300    0.76150    0.08570    1.000
    H39      H        0.82510    0.76570    0.05640    1.000
    H40      H        0.78610    0.72280    0.06880    1.000
    Tb3      Tb       0.48305    0.55548    0.05293    1.000
    Zn7      Zn       0.27629    0.66036    0.56762    1.000
    Zn8      Zn       0.56635    0.66925    0.32333    1.000
    Zn9      Zn       0.76287    0.50931    0.28667    1.000
    O29      O        0.15510    0.70520    0.76590    1.000
    O30      O        0.19740    0.66270    0.67760    1.000
    O31      O        0.37480    0.67760    0.64740    1.000
    O32      O        0.49940    0.70670    0.65060    1.000
    O33      O        0.63840    0.68980    0.41840    1.000
    O34      O        0.63070    0.70650    0.54140    1.000
    O35      O        0.46400    0.58990    0.16500    1.000
    O36      O        0.48660    0.64470    0.23490    1.000
    O37      O        0.55980    0.51720    0.14200    1.000
    O38      O        0.67260    0.49520    0.19980    1.000
    O39      O        0.85820    0.52040    0.38460    1.000
    O40      O        0.93180    0.48540    0.46830    1.000
    O41      O        0.89450    0.41160    0.54750    1.000
    O42      O        0.81500    0.35960    0.51630    1.000
    N19      N        0.22890    0.71720    0.57160    1.000
    N20      N        0.37590    0.66920    0.49220    1.000
    N21      N        0.47770    0.67540    0.40550    1.000
    N22      N        0.62510    0.61670    0.30140    1.000
    N23      N        0.69470    0.55980    0.28910    1.000
    N24      N        0.75120    0.46080    0.35310    1.000
    N25      N        0.73170    0.40100    0.40890    1.000
    C61      C        0.18160    0.69750    0.69880    1.000
    C62      C        0.20190    0.72860    0.63780    1.000
    C63      C        0.44110    0.69110    0.61510    1.000
    C64      C        0.44600    0.68350    0.52990    1.000
    C65      C        0.50810    0.68720    0.47710    1.000
    C66      C        0.59880    0.69570    0.48140    1.000
    C67      C        0.39670    0.66580    0.41770    1.000
    C68      C        0.33650    0.65460    0.35340    1.000
    H41      H        0.36360    0.63710    0.31690    1.000
    H42      H        0.31840    0.67860    0.32690    1.000
    H43      H        0.28910    0.64120    0.37550    1.000
    C69      C        0.50680    0.61020    0.21220    1.000
    C70      C        0.58400    0.59370    0.24570    1.000
    C71      C        0.62660    0.55850    0.23870    1.000
    C72      C        0.61820    0.52160    0.18930    1.000
    C73      C        0.69040    0.59510    0.32300    1.000
    C74      C        0.75160    0.61020    0.37830    1.000
    H44      H        0.79750    0.62180    0.35040    1.000
    H45      H        0.77120    0.58850    0.41030    1.000
    H46      H        0.72630    0.63040    0.41090    1.000
    C75      C        0.87100    0.48810    0.42340    1.000
    C76      C        0.80970    0.45660    0.41330    1.000
    C77      C        0.79670    0.41860    0.44580    1.000
    C78      C        0.83880    0.39490    0.50600    1.000
    C79      C        0.70820    0.42680    0.35270    1.000
    C80      C        0.63590    0.41840    0.29920    1.000
    H47      H        0.63490    0.43810    0.25810    1.000
    H48      H        0.58490    0.41980    0.32830    1.000
    H49      H        0.64180    0.39200    0.27710    1.000
    N26      N        0.85390    0.51870    0.20520    1.000
    C81      C        0.83490    0.54780    0.14960    1.000
    H50      H        0.78290    0.56010    0.14970    1.000
    C82      C        0.89380    0.55860    0.09390    1.000
    H51      H        0.88110    0.57800    0.05670    1.000
    C83      C        0.97160    0.54020    0.09370    1.000
    C84      C        0.99060    0.51110    0.14930    1.000
    H52      H        0.04270    0.49880    0.14920    1.000
    C85      C        0.93170    0.50030    0.20500    1.000
    H53      H        0.94440    0.48090    0.24220    1.000
    N27      N        0.15470    0.57620    0.92440    1.000
    C86      C        0.08010    0.59710    0.93160    1.000
    H54      H        0.06960    0.61930    0.89980    1.000
    C87      C        0.02120    0.58500    0.98630    1.000
    H55      H        0.97130    0.59900    0.99110    1.000
    C88      C        0.03700    0.55190    0.03370    1.000
    C89      C        0.11150    0.53090    0.02650    1.000
    H56      H        0.12210    0.50880    0.05830    1.000
    C90      C        0.17040    0.54310    0.97190    1.000
    H57      H        0.22030    0.52910    0.96710    1.000
    H58      H        0.23300    0.73850    0.41430    1.000
    H59      H        0.32510    0.73430    0.44360    1.000
    H60      H        0.28610    0.77720    0.43120    1.000
    Tb4      Tb       0.01695    0.44452    0.55293    1.000
    Zn10     Zn       0.22371    0.33964    0.06762    1.000
    Zn11     Zn       0.93365    0.33075    0.82333    1.000
    Zn12     Zn       0.73713    0.49069    0.78667    1.000
    O43      O        0.34490    0.29480    0.26590    1.000
    O44      O        0.30260    0.33730    0.17760    1.000
    O45      O        0.12520    0.32240    0.14740    1.000
    O46      O        0.00060    0.29330    0.15060    1.000
    O47      O        0.86160    0.31020    0.91840    1.000
    O48      O        0.86930    0.29350    0.04140    1.000
    O49      O        0.03600    0.41010    0.66500    1.000
    O50      O        0.01340    0.35530    0.73490    1.000
    O51      O        0.94020    0.48280    0.64200    1.000
    O52      O        0.82740    0.50480    0.69980    1.000
    O53      O        0.64180    0.47960    0.88460    1.000
    O54      O        0.56820    0.51460    0.96830    1.000
    O55      O        0.60550    0.58840    0.04750    1.000
    O56      O        0.68500    0.64040    0.01630    1.000
    N28      N        0.27110    0.28280    0.07160    1.000
    N29      N        0.12410    0.33080    0.99220    1.000
    N30      N        0.02230    0.32460    0.90550    1.000
    N31      N        0.87490    0.38330    0.80140    1.000
    N32      N        0.80530    0.44020    0.78910    1.000
    N33      N        0.74880    0.53920    0.85310    1.000
    N34      N        0.76830    0.59900    0.90890    1.000
    C91      C        0.31840    0.30250    0.19880    1.000
    C92      C        0.29810    0.27140    0.13780    1.000
    C93      C        0.05890    0.30890    0.11510    1.000
    C94      C        0.05400    0.31650    0.02990    1.000
    C95      C        0.99190    0.31280    0.97710    1.000
    C96      C        0.90120    0.30430    0.98140    1.000
    C97      C        0.10330    0.33420    0.91770    1.000
    C98      C        0.16350    0.34540    0.85340    1.000
    H61      H        0.13640    0.36290    0.81690    1.000
    H62      H        0.18160    0.32140    0.82690    1.000
    H63      H        0.21090    0.35880    0.87550    1.000
    C99      C        0.99320    0.38980    0.71220    1.000
    C100     C        0.91600    0.40630    0.74570    1.000
    C101     C        0.87340    0.44150    0.73870    1.000
    C102     C        0.88180    0.47840    0.68930    1.000
    C103     C        0.80960    0.40490    0.82300    1.000
    C104     C        0.74840    0.38980    0.87830    1.000
    H64      H        0.70250    0.37820    0.85040    1.000
    H65      H        0.72880    0.41150    0.91030    1.000
    H66      H        0.77370    0.36960    0.91090    1.000
    C105     C        0.62900    0.51190    0.92340    1.000
    C106     C        0.69030    0.54340    0.91330    1.000
    C107     C        0.70330    0.58140    0.94580    1.000
    C108     C        0.66120    0.60510    0.00600    1.000
    C109     C        0.79180    0.57320    0.85270    1.000
    C110     C        0.86410    0.58160    0.79920    1.000
    H67      H        0.86510    0.56190    0.75810    1.000
    H68      H        0.91510    0.58020    0.82830    1.000
    H69      H        0.85820    0.60800    0.77710    1.000
    N35      N        0.64610    0.48130    0.70520    1.000
    C111     C        0.66510    0.45220    0.64960    1.000
    H70      H        0.71710    0.43990    0.64970    1.000
    C112     C        0.60620    0.44140    0.59390    1.000
    H71      H        0.61890    0.42200    0.55670    1.000
    C113     C        0.52840    0.45980    0.59370    1.000
    C114     C        0.50940    0.48890    0.64930    1.000
    H72      H        0.45730    0.50120    0.64920    1.000
    C115     C        0.56830    0.49970    0.70500    1.000
    H73      H        0.55560    0.51910    0.74220    1.000
    N36      N        0.34530    0.42380    0.42440    1.000
    C116     C        0.41990    0.40290    0.43160    1.000
    H74      H        0.43040    0.38070    0.39980    1.000
    C117     C        0.47880    0.41500    0.48630    1.000
    H75      H        0.52870    0.40100    0.49110    1.000
    C118     C        0.46300    0.44810    0.53370    1.000
    C119     C        0.38850    0.46910    0.52650    1.000
    H76      H        0.37790    0.49120    0.55830    1.000
    C120     C        0.32960    0.45690    0.47190    1.000
    H77      H        0.27970    0.47090    0.46710    1.000
    H78      H        0.26700    0.26150    0.91430    1.000
    H79      H        0.17490    0.26570    0.94360    1.000
    H80      H        0.21390    0.22280    0.93120    1.000
    Tb5      Tb       0.48305    0.94452    0.05293    1.000
    Zn13     Zn       0.27629    0.83964    0.56762    1.000
    Zn14     Zn       0.56635    0.83075    0.32333    1.000
    Zn15     Zn       0.76287    0.99069    0.28667    1.000
    O57      O        0.15510    0.79480    0.76590    1.000
    O58      O        0.19740    0.83730    0.67760    1.000
    O59      O        0.37480    0.82240    0.64740    1.000
    O60      O        0.49940    0.79330    0.65060    1.000
    O61      O        0.63840    0.81020    0.41840    1.000
    O62      O        0.63070    0.79350    0.54140    1.000
    O63      O        0.46400    0.91010    0.16500    1.000
    O64      O        0.48660    0.85530    0.23490    1.000
    O65      O        0.55980    0.98280    0.14200    1.000
    O66      O        0.67260    0.00480    0.19980    1.000
    O67      O        0.85820    0.97960    0.38460    1.000
    O68      O        0.93180    0.01460    0.46830    1.000
    O69      O        0.89450    0.08840    0.54750    1.000
    O70      O        0.81500    0.14040    0.51630    1.000
    N37      N        0.22890    0.78280    0.57160    1.000
    N38      N        0.37590    0.83080    0.49220    1.000
    N39      N        0.47770    0.82460    0.40550    1.000
    N40      N        0.62510    0.88330    0.30140    1.000
    N41      N        0.69470    0.94020    0.28910    1.000
    N42      N        0.75120    0.03920    0.35310    1.000
    N43      N        0.73170    0.09900    0.40890    1.000
    C121     C        0.18160    0.80250    0.69880    1.000
    C122     C        0.20190    0.77140    0.63780    1.000
    C123     C        0.44110    0.80890    0.61510    1.000
    C124     C        0.44600    0.81650    0.52990    1.000
    C125     C        0.50810    0.81280    0.47710    1.000
    C126     C        0.59880    0.80430    0.48140    1.000
    C127     C        0.39670    0.83420    0.41770    1.000
    C128     C        0.33650    0.84540    0.35340    1.000
    H81      H        0.36360    0.86290    0.31690    1.000
    H82      H        0.31840    0.82140    0.32690    1.000
    H83      H        0.28910    0.85880    0.37550    1.000
    C129     C        0.50680    0.88980    0.21220    1.000
    C130     C        0.58400    0.90630    0.24570    1.000
    C131     C        0.62660    0.94150    0.23870    1.000
    C132     C        0.61820    0.97840    0.18930    1.000
    C133     C        0.69040    0.90490    0.32300    1.000
    C134     C        0.75160    0.88980    0.37830    1.000
    H84      H        0.79750    0.87820    0.35040    1.000
    H85      H        0.77120    0.91150    0.41030    1.000
    H86      H        0.72630    0.86960    0.41090    1.000
    C135     C        0.87100    0.01190    0.42340    1.000
    C136     C        0.80970    0.04340    0.41330    1.000
    C137     C        0.79670    0.08140    0.44580    1.000
    C138     C        0.83880    0.10510    0.50600    1.000
    C139     C        0.70820    0.07320    0.35270    1.000
    C140     C        0.63590    0.08160    0.29920    1.000
    H87      H        0.63490    0.06190    0.25810    1.000
    H88      H        0.58490    0.08020    0.32830    1.000
    H89      H        0.64180    0.10800    0.27710    1.000
    N44      N        0.85390    0.98130    0.20520    1.000
    C141     C        0.83490    0.95220    0.14960    1.000
    H90      H        0.78290    0.93990    0.14970    1.000
    C142     C        0.89380    0.94140    0.09390    1.000
    H91      H        0.88110    0.92200    0.05670    1.000
    C143     C        0.97160    0.95980    0.09370    1.000
    C144     C        0.99060    0.98890    0.14930    1.000
    H92      H        0.04270    0.00120    0.14920    1.000
    C145     C        0.93170    0.99970    0.20500    1.000
    H93      H        0.94440    0.01910    0.24220    1.000
    N45      N        0.15470    0.92380    0.92440    1.000
    C146     C        0.08010    0.90290    0.93160    1.000
    H94      H        0.06960    0.88070    0.89980    1.000
    C147     C        0.02120    0.91500    0.98630    1.000
    H95      H        0.97130    0.90100    0.99110    1.000
    C148     C        0.03700    0.94810    0.03370    1.000
    C149     C        0.11150    0.96910    0.02650    1.000
    H96      H        0.12210    0.99120    0.05830    1.000
    C150     C        0.17040    0.95690    0.97190    1.000
    H97      H        0.22030    0.97090    0.96710    1.000
    H98      H        0.23300    0.76150    0.41430    1.000
    H99      H        0.32510    0.76570    0.44360    1.000
    H100     H        0.28610    0.72280    0.43120    1.000
    Tb6      Tb       0.01695    0.05548    0.55293    1.000
    Zn16     Zn       0.22371    0.16036    0.06762    1.000
    Zn17     Zn       0.93365    0.16925    0.82333    1.000
    Zn18     Zn       0.73713    0.00931    0.78667    1.000
    O71      O        0.34490    0.20520    0.26590    1.000
    O72      O        0.30260    0.16270    0.17760    1.000
    O73      O        0.12520    0.17760    0.14740    1.000
    O74      O        0.00060    0.20670    0.15060    1.000
    O75      O        0.86160    0.18980    0.91840    1.000
    O76      O        0.86930    0.20650    0.04140    1.000
    O77      O        0.03600    0.08990    0.66500    1.000
    O78      O        0.01340    0.14470    0.73490    1.000
    O79      O        0.94020    0.01720    0.64200    1.000
    O80      O        0.82740    0.99520    0.69980    1.000
    O81      O        0.64180    0.02040    0.88460    1.000
    O82      O        0.56820    0.98540    0.96830    1.000
    O83      O        0.60550    0.91160    0.04750    1.000
    O84      O        0.68500    0.85960    0.01630    1.000
    N46      N        0.27110    0.21720    0.07160    1.000
    N47      N        0.12410    0.16920    0.99220    1.000
    N48      N        0.02230    0.17540    0.90550    1.000
    N49      N        0.87490    0.11670    0.80140    1.000
    N50      N        0.80530    0.05980    0.78910    1.000
    N51      N        0.74880    0.96080    0.85310    1.000
    N52      N        0.76830    0.90100    0.90890    1.000
    C151     C        0.31840    0.19750    0.19880    1.000
    C152     C        0.29810    0.22860    0.13780    1.000
    C153     C        0.05890    0.19110    0.11510    1.000
    C154     C        0.05400    0.18350    0.02990    1.000
    C155     C        0.99190    0.18720    0.97710    1.000
    C156     C        0.90120    0.19570    0.98140    1.000
    C157     C        0.10330    0.16580    0.91770    1.000
    C158     C        0.16350    0.15460    0.85340    1.000
    H101     H        0.13640    0.13710    0.81690    1.000
    H102     H        0.18160    0.17860    0.82690    1.000
    H103     H        0.21090    0.14120    0.87550    1.000
    C159     C        0.99320    0.11020    0.71220    1.000
    C160     C        0.91600    0.09370    0.74570    1.000
    C161     C        0.87340    0.05850    0.73870    1.000
    C162     C        0.88180    0.02160    0.68930    1.000
    C163     C        0.80960    0.09510    0.82300    1.000
    C164     C        0.74840    0.11020    0.87830    1.000
    H104     H        0.70250    0.12180    0.85040    1.000
    H105     H        0.72880    0.08850    0.91030    1.000
    H106     H        0.77370    0.13040    0.91090    1.000
    C165     C        0.62900    0.98810    0.92340    1.000
    C166     C        0.69030    0.95660    0.91330    1.000
    C167     C        0.70330    0.91860    0.94580    1.000
    C168     C        0.66120    0.89490    0.00600    1.000
    C169     C        0.79180    0.92680    0.85270    1.000
    C170     C        0.86410    0.91840    0.79920    1.000
    H107     H        0.86510    0.93810    0.75810    1.000
    H108     H        0.91510    0.91980    0.82830    1.000
    H109     H        0.85820    0.89200    0.77710    1.000
    N53      N        0.64610    0.01870    0.70520    1.000
    C171     C        0.66510    0.04780    0.64960    1.000
    H110     H        0.71710    0.06010    0.64970    1.000
    C172     C        0.60620    0.05860    0.59390    1.000
    H111     H        0.61890    0.07800    0.55670    1.000
    C173     C        0.52840    0.04020    0.59370    1.000
    C174     C        0.50940    0.01110    0.64930    1.000
    H112     H        0.45730    0.99880    0.64920    1.000
    C175     C        0.56830    0.00030    0.70500    1.000
    H113     H        0.55560    0.98090    0.74220    1.000
    N54      N        0.34530    0.07620    0.42440    1.000
    C176     C        0.41990    0.09710    0.43160    1.000
    H114     H        0.43040    0.11930    0.39980    1.000
    C177     C        0.47880    0.08500    0.48630    1.000
    H115     H        0.52870    0.09900    0.49110    1.000
    C178     C        0.46300    0.05190    0.53370    1.000
    C179     C        0.38850    0.03090    0.52650    1.000
    H116     H        0.37790    0.00880    0.55830    1.000
    C180     C        0.32960    0.04310    0.47190    1.000
    H117     H        0.27970    0.02910    0.46710    1.000
    H118     H        0.26700    0.23850    0.91430    1.000
    H119     H        0.17490    0.23430    0.94360    1.000
    H120     H        0.21390    0.27720    0.93120    1.000
    Tb7      Tb       0.51695    0.44452    0.94707    1.000
    Zn19     Zn       0.72371    0.33964    0.43238    1.000
    Zn20     Zn       0.43365    0.33075    0.67667    1.000
    Zn21     Zn       0.23713    0.49069    0.71333    1.000
    O85      O        0.84490    0.29480    0.23410    1.000
    O86      O        0.80260    0.33730    0.32240    1.000
    O87      O        0.62520    0.32240    0.35260    1.000
    O88      O        0.50060    0.29330    0.34940    1.000
    O89      O        0.36160    0.31020    0.58160    1.000
    O90      O        0.36930    0.29350    0.45860    1.000
    O91      O        0.53600    0.41010    0.83500    1.000
    O92      O        0.51340    0.35530    0.76510    1.000
    O93      O        0.44020    0.48280    0.85800    1.000
    O94      O        0.32740    0.50480    0.80020    1.000
    O95      O        0.14180    0.47960    0.61540    1.000
    O96      O        0.06820    0.51460    0.53170    1.000
    O97      O        0.10550    0.58840    0.45250    1.000
    O98      O        0.18500    0.64040    0.48370    1.000
    N55      N        0.77110    0.28280    0.42840    1.000
    N56      N        0.62410    0.33080    0.50780    1.000
    N57      N        0.52230    0.32460    0.59450    1.000
    N58      N        0.37490    0.38330    0.69860    1.000
    N59      N        0.30530    0.44020    0.71090    1.000
    N60      N        0.24880    0.53920    0.64690    1.000
    N61      N        0.26830    0.59900    0.59110    1.000
    C181     C        0.81840    0.30250    0.30120    1.000
    C182     C        0.79810    0.27140    0.36220    1.000
    C183     C        0.55890    0.30890    0.38490    1.000
    C184     C        0.55400    0.31650    0.47010    1.000
    C185     C        0.49190    0.31280    0.52290    1.000
    C186     C        0.40120    0.30430    0.51860    1.000
    C187     C        0.60330    0.33420    0.58230    1.000
    C188     C        0.66350    0.34540    0.64660    1.000
    H121     H        0.63640    0.36290    0.68310    1.000
    H122     H        0.68160    0.32140    0.67310    1.000
    H123     H        0.71090    0.35880    0.62450    1.000
    C189     C        0.49320    0.38980    0.78780    1.000
    C190     C        0.41600    0.40630    0.75430    1.000
    C191     C        0.37340    0.44150    0.76130    1.000
    C192     C        0.38180    0.47840    0.81070    1.000
    C193     C        0.30960    0.40490    0.67700    1.000
    C194     C        0.24840    0.38980    0.62170    1.000
    H124     H        0.20250    0.37820    0.64960    1.000
    H125     H        0.22880    0.41150    0.58970    1.000
    H126     H        0.27370    0.36960    0.58910    1.000
    C195     C        0.12900    0.51190    0.57660    1.000
    C196     C        0.19030    0.54340    0.58670    1.000
    C197     C        0.20330    0.58140    0.55420    1.000
    C198     C        0.16120    0.60510    0.49400    1.000
    C199     C        0.29180    0.57320    0.64730    1.000
    C200     C        0.36410    0.58160    0.70080    1.000
    H127     H        0.36510    0.56190    0.74190    1.000
    H128     H        0.41510    0.58020    0.67170    1.000
    H129     H        0.35820    0.60800    0.72290    1.000
    N62      N        0.14610    0.48130    0.79480    1.000
    C201     C        0.16510    0.45220    0.85040    1.000
    H130     H        0.21710    0.43990    0.85030    1.000
    C202     C        0.10620    0.44140    0.90610    1.000
    H131     H        0.11890    0.42200    0.94330    1.000
    C203     C        0.02840    0.45980    0.90630    1.000
    C204     C        0.00940    0.48890    0.85070    1.000
    H132     H        0.95730    0.50120    0.85080    1.000
    C205     C        0.06830    0.49970    0.79500    1.000
    H133     H        0.05560    0.51910    0.75780    1.000
    N63      N        0.84530    0.42380    0.07560    1.000
    C206     C        0.91990    0.40290    0.06840    1.000
    H134     H        0.93040    0.38070    0.10020    1.000
    C207     C        0.97880    0.41500    0.01370    1.000
    H135     H        0.02870    0.40100    0.00890    1.000
    C208     C        0.96300    0.44810    0.96630    1.000
    C209     C        0.88850    0.46910    0.97350    1.000
    H136     H        0.87790    0.49120    0.94170    1.000
    C210     C        0.82960    0.45690    0.02810    1.000
    H137     H        0.77970    0.47090    0.03290    1.000
    H138     H        0.76700    0.26150    0.58570    1.000
    H139     H        0.67490    0.26570    0.55640    1.000
    H140     H        0.71390    0.22280    0.56880    1.000
    Tb8      Tb       0.98305    0.55548    0.44707    1.000
    Zn22     Zn       0.77629    0.66036    0.93238    1.000
    Zn23     Zn       0.06635    0.66925    0.17667    1.000
    Zn24     Zn       0.26287    0.50931    0.21333    1.000
    O99      O        0.65510    0.70520    0.73410    1.000
    O100     O        0.69740    0.66270    0.82240    1.000
    O101     O        0.87480    0.67760    0.85260    1.000
    O102     O        0.99940    0.70670    0.84940    1.000
    O103     O        0.13840    0.68980    0.08160    1.000
    O104     O        0.13070    0.70650    0.95860    1.000
    O105     O        0.96400    0.58990    0.33500    1.000
    O106     O        0.98660    0.64470    0.26510    1.000
    O107     O        0.05980    0.51720    0.35800    1.000
    O108     O        0.17260    0.49520    0.30020    1.000
    O109     O        0.35820    0.52040    0.11540    1.000
    O110     O        0.43180    0.48540    0.03170    1.000
    O111     O        0.39450    0.41160    0.95250    1.000
    O112     O        0.31500    0.35960    0.98370    1.000
    N64      N        0.72890    0.71720    0.92840    1.000
    N65      N        0.87590    0.66920    0.00780    1.000
    N66      N        0.97770    0.67540    0.09450    1.000
    N67      N        0.12510    0.61670    0.19860    1.000
    N68      N        0.19470    0.55980    0.21090    1.000
    N69      N        0.25120    0.46080    0.14690    1.000
    N70      N        0.23170    0.40100    0.09110    1.000
    C211     C        0.68160    0.69750    0.80120    1.000
    C212     C        0.70190    0.72860    0.86220    1.000
    C213     C        0.94110    0.69110    0.88490    1.000
    C214     C        0.94600    0.68350    0.97010    1.000
    C215     C        0.00810    0.68720    0.02290    1.000
    C216     C        0.09880    0.69570    0.01860    1.000
    C217     C        0.89670    0.66580    0.08230    1.000
    C218     C        0.83650    0.65460    0.14660    1.000
    H141     H        0.86360    0.63710    0.18310    1.000
    H142     H        0.81840    0.67860    0.17310    1.000
    H143     H        0.78910    0.64120    0.12450    1.000
    C219     C        0.00680    0.61020    0.28780    1.000
    C220     C        0.08400    0.59370    0.25430    1.000
    C221     C        0.12660    0.55850    0.26130    1.000
    C222     C        0.11820    0.52160    0.31070    1.000
    C223     C        0.19040    0.59510    0.17700    1.000
    C224     C        0.25160    0.61020    0.12170    1.000
    H144     H        0.29750    0.62180    0.14960    1.000
    H145     H        0.27120    0.58850    0.08970    1.000
    H146     H        0.22630    0.63040    0.08910    1.000
    C225     C        0.37100    0.48810    0.07660    1.000
    C226     C        0.30970    0.45660    0.08670    1.000
    C227     C        0.29670    0.41860    0.05420    1.000
    C228     C        0.33880    0.39490    0.99400    1.000
    C229     C        0.20820    0.42680    0.14730    1.000
    C230     C        0.13590    0.41840    0.20080    1.000
    H147     H        0.13490    0.43810    0.24190    1.000
    H148     H        0.08490    0.41980    0.17170    1.000
    H149     H        0.14180    0.39200    0.22290    1.000
    N71      N        0.35390    0.51870    0.29480    1.000
    C231     C        0.33490    0.54780    0.35040    1.000
    H150     H        0.28290    0.56010    0.35030    1.000
    C232     C        0.39380    0.55860    0.40610    1.000
    H151     H        0.38110    0.57800    0.44330    1.000
    C233     C        0.47160    0.54020    0.40630    1.000
    C234     C        0.49060    0.51110    0.35070    1.000
    H152     H        0.54270    0.49880    0.35080    1.000
    C235     C        0.43170    0.50030    0.29500    1.000
    H153     H        0.44440    0.48090    0.25780    1.000
    N72      N        0.65470    0.57620    0.57560    1.000
    C236     C        0.58010    0.59710    0.56840    1.000
    H154     H        0.56960    0.61930    0.60020    1.000
    C237     C        0.52120    0.58500    0.51370    1.000
    H155     H        0.47130    0.59900    0.50890    1.000
    C238     C        0.53700    0.55190    0.46630    1.000
    C239     C        0.61150    0.53090    0.47350    1.000
    H156     H        0.62210    0.50880    0.44170    1.000
    C240     C        0.67040    0.54310    0.52810    1.000
    H157     H        0.72030    0.52910    0.53290    1.000
    H158     H        0.73300    0.73850    0.08570    1.000
    H159     H        0.82510    0.73430    0.05640    1.000
    H160     H        0.78610    0.77720    0.06880    1.000
    Tb9      Tb       0.88974    0.25000    0.14667    1.000
    C241     C        0.75500    0.25000    0.46930    1.000
    C242     C        0.72500    0.25000    0.55260    1.000
    Tb10     Tb       0.61026    0.75000    0.64667    1.000
    C243     C        0.74500    0.75000    0.96930    1.000
    C244     C        0.77500    0.75000    0.05260    1.000
    Tb11     Tb       0.11026    0.75000    0.85333    1.000
    C245     C        0.24500    0.75000    0.53070    1.000
    C246     C        0.27500    0.75000    0.44740    1.000
    Tb12     Tb       0.38974    0.25000    0.35333    1.000
    C247     C        0.25500    0.25000    0.03070    1.000
    C248     C        0.22500    0.25000    0.94740    1.000
