# CIF file generated by openbabel 3.1.0, see https://openbabel.org
data_I
_chemical_name_common 'image0'
_cell_length_a 9.6191
_cell_length_b 11.6023
_cell_length_c 14.3044
_cell_angle_alpha 90
_cell_angle_beta 122.456
_cell_angle_gamma 90
_space_group_name_H-M_alt 'P 1'
_space_group_name_Hall 'P 1'
loop_
    _symmetry_equiv_pos_as_xyz
    x,y,z
loop_
    _atom_site_label
    _atom_site_type_symbol
    _atom_site_fract_x
    _atom_site_fract_y
    _atom_site_fract_z
    _atom_site_occupancy
    Dy1      Dy       0.38234    0.51298    0.66760    1.000
    O1       O        0.60320    0.63700    0.79320    1.000
    O2       O        0.38400    0.89370    0.70350    1.000
    O3       O        0.29520    0.71170    0.65660    1.000
    O4       O        0.48000    0.61770    0.56700    1.000
    O5       O        0.69330    0.81800    0.82860    1.000
    O6       O        0.53830    0.61130    0.43610    1.000
    O7       O        0.11110    0.51050    0.64350    1.000
    O8       O        0.83920    0.48860    0.52170    1.000
    C1       C        0.58340    0.74290    0.78340    1.000
    C2       C        0.50560    0.56580    0.50090    1.000
    C3       C        0.40340    0.78680    0.70690    1.000
    C4       C        0.98450    0.49980    0.54720    1.000
    Dy2      Dy       0.61766    0.01298    0.83240    1.000
    O9       O        0.39680    0.13700    0.70680    1.000
    O10      O        0.61600    0.39370    0.79650    1.000
    O11      O        0.70480    0.21170    0.84340    1.000
    O12      O        0.52000    0.11770    0.93300    1.000
    O13      O        0.30670    0.31800    0.67140    1.000
    O14      O        0.46170    0.11130    0.06390    1.000
    O15      O        0.88890    0.01050    0.85650    1.000
    O16      O        0.16080    0.98860    0.97830    1.000
    C5       C        0.41660    0.24290    0.71660    1.000
    C6       C        0.49440    0.06580    0.99910    1.000
    C7       C        0.59660    0.28680    0.79310    1.000
    C8       C        0.01550    0.99980    0.95280    1.000
    Dy3      Dy       0.61766    0.48702    0.33240    1.000
    O17      O        0.39680    0.36300    0.20680    1.000
    O18      O        0.61600    0.10630    0.29650    1.000
    O19      O        0.70480    0.28830    0.34340    1.000
    O20      O        0.52000    0.38230    0.43300    1.000
    O21      O        0.30670    0.18200    0.17140    1.000
    O22      O        0.46170    0.38870    0.56390    1.000
    O23      O        0.88890    0.48950    0.35650    1.000
    O24      O        0.16080    0.51140    0.47830    1.000
    C9       C        0.41660    0.25710    0.21660    1.000
    C10      C        0.49440    0.43420    0.49910    1.000
    C11      C        0.59660    0.21320    0.29310    1.000
    C12      C        0.01550    0.50020    0.45280    1.000
    Dy4      Dy       0.38234    0.98702    0.16760    1.000
    O25      O        0.60320    0.86300    0.29320    1.000
    O26      O        0.38400    0.60630    0.20350    1.000
    O27      O        0.29520    0.78830    0.15660    1.000
    O28      O        0.48000    0.88230    0.06700    1.000
    O29      O        0.69330    0.68200    0.32860    1.000
    O30      O        0.53830    0.88870    0.93610    1.000
    O31      O        0.11110    0.98950    0.14350    1.000
    O32      O        0.83920    0.01140    0.02170    1.000
    C13      C        0.58340    0.75710    0.28340    1.000
    C14      C        0.50560    0.93420    0.00090    1.000
    C15      C        0.40340    0.71320    0.20690    1.000
    C16      C        0.98450    0.00020    0.04720    1.000
