# CIF file generated by openbabel 3.1.0, see https://openbabel.org
data_I
_chemical_name_common 'image0'
_cell_length_a 22.748
_cell_length_b 15.8466
_cell_length_c 15.1126
_cell_angle_alpha 90
_cell_angle_beta 90
_cell_angle_gamma 90
_space_group_name_H-M_alt 'P 1'
_space_group_name_Hall 'P 1'
loop_
    _symmetry_equiv_pos_as_xyz
    x,y,z
loop_
    _atom_site_label
    _atom_site_type_symbol
    _atom_site_fract_x
    _atom_site_fract_y
    _atom_site_fract_z
    _atom_site_occupancy
    In1      In       0.17101    0.60203    0.86692    1.000
    O1       O        0.13170    0.70150    0.77310    1.000
    O2       O        0.11024    0.67140    0.96150    1.000
    O3       O        0.70119    0.96020    0.85510    1.000
    O4       O        0.73672    0.80200    0.42360    1.000
    O5       O        0.14635    0.57190    0.72570    1.000
    O6       O        0.07655    0.55890    0.89430    1.000
    O7       O        0.76090    0.87560    0.30890    1.000
    O8       O        0.70414    0.02570    0.98340    1.000
    O9       O        0.01125    0.71820    0.39150    1.000
    O10      O        0.84266    0.69020    0.08320    1.000
    C1       C        0.00920    0.63750    0.98280    1.000
    C2       C        0.83600    0.79130    0.37420    1.000
    C3       C        0.87760    0.81440    0.30970    1.000
    H1       H        0.86600    0.84670    0.26140    1.000
    C4       C        0.77540    0.82400    0.36870    1.000
    C5       C        0.09770    0.66650    0.62730    1.000
    C6       C        0.07470    0.74590    0.61220    1.000
    H2       H        0.07960    0.78790    0.65460    1.000
    C7       C        0.03790    0.70060    0.47210    1.000
    C8       C        0.99460    0.71870    0.01310    1.000
    H3       H        0.02260    0.76140    0.01040    1.000
    C9       C        0.06190    0.62250    0.48330    1.000
    H4       H        0.05820    0.58180    0.43930    1.000
    C10      C        0.04450    0.76400    0.53490    1.000
    H5       H        0.02890    0.81750    0.52520    1.000
    C11      C        0.09230    0.60400    0.56250    1.000
    H6       H        0.10860    0.55080    0.57140    1.000
    C12      C        0.95320    0.74240    0.38970    1.000
    C13      C        0.96660    0.57470    0.98850    1.000
    H7       H        0.97560    0.52040    0.96960    1.000
    C14      C        0.12650    0.64580    0.71280    1.000
    C15      C        0.85340    0.74400    0.44470    1.000
    H8       H        0.82590    0.72780    0.48690    1.000
    C16      C        0.89800    0.67290    0.04950    1.000
    C17      C        0.91090    0.59180    0.02190    1.000
    H9       H        0.88280    0.54940    0.02570    1.000
    C18      C        0.74850    0.88890    0.97350    1.000
    C19      C        0.77770    0.83240    0.91990    1.000
    H10      H        0.77500    0.83860    0.85890    1.000
    C20      C        0.94020    0.73620    0.04640    1.000
    H11      H        0.93140    0.79010    0.06690    1.000
    C21      C        0.81050    0.76740    0.95340    1.000
    H12      H        0.83110    0.73140    0.91590    1.000
    C22      C        0.91260    0.71910    0.45470    1.000
    H13      H        0.92440    0.68770    0.50360    1.000
    C23      C        0.93550    0.78950    0.31730    1.000
    H14      H        0.96260    0.80440    0.27400    1.000
    C24      C        0.78220    0.81030    0.10100    1.000
    H15      H        0.78310    0.80180    0.16180    1.000
    C25      C        0.81240    0.75640    0.04530    1.000
    C26      C        0.75050    0.87700    0.06610    1.000
    H16      H        0.73060    0.91390    0.10350    1.000
    C27      C        0.71640    0.96220    0.93660    1.000
    C28      C        0.06800    0.62040    0.94440    1.000
    In2      In       0.67101    0.10203    0.86692    1.000
    O11      O        0.63170    0.20150    0.77310    1.000
    O12      O        0.61024    0.17140    0.96150    1.000
    O13      O        0.20119    0.46020    0.85510    1.000
    O14      O        0.23672    0.30200    0.42360    1.000
    O15      O        0.64635    0.07190    0.72570    1.000
    O16      O        0.57655    0.05890    0.89430    1.000
    O17      O        0.26090    0.37560    0.30890    1.000
    O18      O        0.20414    0.52570    0.98340    1.000
    O19      O        0.51125    0.21820    0.39150    1.000
    O20      O        0.34266    0.19020    0.08320    1.000
    C29      C        0.50920    0.13750    0.98280    1.000
    C30      C        0.33600    0.29130    0.37420    1.000
    C31      C        0.37760    0.31440    0.30970    1.000
    H17      H        0.36600    0.34670    0.26140    1.000
    C32      C        0.27540    0.32400    0.36870    1.000
    C33      C        0.59770    0.16650    0.62730    1.000
    C34      C        0.57470    0.24590    0.61220    1.000
    H18      H        0.57960    0.28790    0.65460    1.000
    C35      C        0.53790    0.20060    0.47210    1.000
    C36      C        0.49460    0.21870    0.01310    1.000
    H19      H        0.52260    0.26140    0.01040    1.000
    C37      C        0.56190    0.12250    0.48330    1.000
    H20      H        0.55820    0.08180    0.43930    1.000
    C38      C        0.54450    0.26400    0.53490    1.000
    H21      H        0.52890    0.31750    0.52520    1.000
    C39      C        0.59230    0.10400    0.56250    1.000
    H22      H        0.60860    0.05080    0.57140    1.000
    C40      C        0.45320    0.24240    0.38970    1.000
    C41      C        0.46660    0.07470    0.98850    1.000
    H23      H        0.47560    0.02040    0.96960    1.000
    C42      C        0.62650    0.14580    0.71280    1.000
    C43      C        0.35340    0.24400    0.44470    1.000
    H24      H        0.32590    0.22780    0.48690    1.000
    C44      C        0.39800    0.17290    0.04950    1.000
    C45      C        0.41090    0.09180    0.02190    1.000
    H25      H        0.38280    0.04940    0.02570    1.000
    C46      C        0.24850    0.38890    0.97350    1.000
    C47      C        0.27770    0.33240    0.91990    1.000
    H26      H        0.27500    0.33860    0.85890    1.000
    C48      C        0.44020    0.23620    0.04640    1.000
    H27      H        0.43140    0.29010    0.06690    1.000
    C49      C        0.31050    0.26740    0.95340    1.000
    H28      H        0.33110    0.23140    0.91590    1.000
    C50      C        0.41260    0.21910    0.45470    1.000
    H29      H        0.42440    0.18770    0.50360    1.000
    C51      C        0.43550    0.28950    0.31730    1.000
    H30      H        0.46260    0.30440    0.27400    1.000
    C52      C        0.28220    0.31030    0.10100    1.000
    H31      H        0.28310    0.30180    0.16180    1.000
    C53      C        0.31240    0.25640    0.04530    1.000
    C54      C        0.25050    0.37700    0.06610    1.000
    H32      H        0.23060    0.41390    0.10350    1.000
    C55      C        0.21640    0.46220    0.93660    1.000
    C56      C        0.56800    0.12040    0.94440    1.000
    In3      In       0.17101    0.39797    0.36692    1.000
    O21      O        0.13170    0.29850    0.27310    1.000
    O22      O        0.11024    0.32860    0.46150    1.000
    O23      O        0.70119    0.03980    0.35510    1.000
    O24      O        0.73672    0.19800    0.92360    1.000
    O25      O        0.14635    0.42810    0.22570    1.000
    O26      O        0.07655    0.44110    0.39430    1.000
    O27      O        0.76090    0.12440    0.80890    1.000
    O28      O        0.70414    0.97430    0.48340    1.000
    O29      O        0.01125    0.28180    0.89150    1.000
    O30      O        0.84266    0.30980    0.58320    1.000
    C57      C        0.00920    0.36250    0.48280    1.000
    C58      C        0.83600    0.20870    0.87420    1.000
    C59      C        0.87760    0.18560    0.80970    1.000
    H33      H        0.86600    0.15330    0.76140    1.000
    C60      C        0.77540    0.17600    0.86870    1.000
    C61      C        0.09770    0.33350    0.12730    1.000
    C62      C        0.07470    0.25410    0.11220    1.000
    H34      H        0.07960    0.21210    0.15460    1.000
    C63      C        0.03790    0.29940    0.97210    1.000
    C64      C        0.99460    0.28130    0.51310    1.000
    H35      H        0.02260    0.23860    0.51040    1.000
    C65      C        0.06190    0.37750    0.98330    1.000
    H36      H        0.05820    0.41820    0.93930    1.000
    C66      C        0.04450    0.23600    0.03490    1.000
    H37      H        0.02890    0.18250    0.02520    1.000
    C67      C        0.09230    0.39600    0.06250    1.000
    H38      H        0.10860    0.44920    0.07140    1.000
    C68      C        0.95320    0.25760    0.88970    1.000
    C69      C        0.96660    0.42530    0.48850    1.000
    H39      H        0.97560    0.47960    0.46960    1.000
    C70      C        0.12650    0.35420    0.21280    1.000
    C71      C        0.85340    0.25600    0.94470    1.000
    H40      H        0.82590    0.27220    0.98690    1.000
    C72      C        0.89800    0.32710    0.54950    1.000
    C73      C        0.91090    0.40820    0.52190    1.000
    H41      H        0.88280    0.45060    0.52570    1.000
    C74      C        0.74850    0.11110    0.47350    1.000
    C75      C        0.77770    0.16760    0.41990    1.000
    H42      H        0.77500    0.16140    0.35890    1.000
    C76      C        0.94020    0.26380    0.54640    1.000
    H43      H        0.93140    0.20990    0.56690    1.000
    C77      C        0.81050    0.23260    0.45340    1.000
    H44      H        0.83110    0.26860    0.41590    1.000
    C78      C        0.91260    0.28090    0.95470    1.000
    H45      H        0.92440    0.31230    0.00360    1.000
    C79      C        0.93550    0.21050    0.81730    1.000
    H46      H        0.96260    0.19560    0.77400    1.000
    C80      C        0.78220    0.18970    0.60100    1.000
    H47      H        0.78310    0.19820    0.66180    1.000
    C81      C        0.81240    0.24360    0.54530    1.000
    C82      C        0.75050    0.12300    0.56610    1.000
    H48      H        0.73060    0.08610    0.60350    1.000
    C83      C        0.71640    0.03780    0.43660    1.000
    C84      C        0.06800    0.37960    0.44440    1.000
    In4      In       0.67101    0.89797    0.36692    1.000
    O31      O        0.63170    0.79850    0.27310    1.000
    O32      O        0.61024    0.82860    0.46150    1.000
    O33      O        0.20119    0.53980    0.35510    1.000
    O34      O        0.23672    0.69800    0.92360    1.000
    O35      O        0.64635    0.92810    0.22570    1.000
    O36      O        0.57655    0.94110    0.39430    1.000
    O37      O        0.26090    0.62440    0.80890    1.000
    O38      O        0.20414    0.47430    0.48340    1.000
    O39      O        0.51125    0.78180    0.89150    1.000
    O40      O        0.34266    0.80980    0.58320    1.000
    C85      C        0.50920    0.86250    0.48280    1.000
    C86      C        0.33600    0.70870    0.87420    1.000
    C87      C        0.37760    0.68560    0.80970    1.000
    H49      H        0.36600    0.65330    0.76140    1.000
    C88      C        0.27540    0.67600    0.86870    1.000
    C89      C        0.59770    0.83350    0.12730    1.000
    C90      C        0.57470    0.75410    0.11220    1.000
    H50      H        0.57960    0.71210    0.15460    1.000
    C91      C        0.53790    0.79940    0.97210    1.000
    C92      C        0.49460    0.78130    0.51310    1.000
    H51      H        0.52260    0.73860    0.51040    1.000
    C93      C        0.56190    0.87750    0.98330    1.000
    H52      H        0.55820    0.91820    0.93930    1.000
    C94      C        0.54450    0.73600    0.03490    1.000
    H53      H        0.52890    0.68250    0.02520    1.000
    C95      C        0.59230    0.89600    0.06250    1.000
    H54      H        0.60860    0.94920    0.07140    1.000
    C96      C        0.45320    0.75760    0.88970    1.000
    C97      C        0.46660    0.92530    0.48850    1.000
    H55      H        0.47560    0.97960    0.46960    1.000
    C98      C        0.62650    0.85420    0.21280    1.000
    C99      C        0.35340    0.75600    0.94470    1.000
    H56      H        0.32590    0.77220    0.98690    1.000
    C100     C        0.39800    0.82710    0.54950    1.000
    C101     C        0.41090    0.90820    0.52190    1.000
    H57      H        0.38280    0.95060    0.52570    1.000
    C102     C        0.24850    0.61110    0.47350    1.000
    C103     C        0.27770    0.66760    0.41990    1.000
    H58      H        0.27500    0.66140    0.35890    1.000
    C104     C        0.44020    0.76380    0.54640    1.000
    H59      H        0.43140    0.70990    0.56690    1.000
    C105     C        0.31050    0.73260    0.45340    1.000
    H60      H        0.33110    0.76860    0.41590    1.000
    C106     C        0.41260    0.78090    0.95470    1.000
    H61      H        0.42440    0.81230    0.00360    1.000
    C107     C        0.43550    0.71050    0.81730    1.000
    H62      H        0.46260    0.69560    0.77400    1.000
    C108     C        0.28220    0.68970    0.60100    1.000
    H63      H        0.28310    0.69820    0.66180    1.000
    C109     C        0.31240    0.74360    0.54530    1.000
    C110     C        0.25050    0.62300    0.56610    1.000
    H64      H        0.23060    0.58610    0.60350    1.000
    C111     C        0.21640    0.53780    0.43660    1.000
    C112     C        0.56800    0.87960    0.44440    1.000
