# CIF file generated by openbabel 3.1.0, see https://openbabel.org
data_I
_chemical_name_common 'image0'
_cell_length_a 26.019
_cell_length_b 12.3698
_cell_length_c 19.5603
_cell_angle_alpha 90
_cell_angle_beta 121.672
_cell_angle_gamma 90
_space_group_name_H-M_alt 'P 1'
_space_group_name_Hall 'P 1'
loop_
    _symmetry_equiv_pos_as_xyz
    x,y,z
loop_
    _atom_site_label
    _atom_site_type_symbol
    _atom_site_fract_x
    _atom_site_fract_y
    _atom_site_fract_z
    _atom_site_occupancy
    Eu1      Eu       0.50318    0.97455    0.37554    1.000
    S1       S        0.50132    0.59790    0.33050    1.000
    S2       S        0.49660    0.34560    0.32510    1.000
    S3       S        0.34259    0.25050    0.45750    1.000
    S4       S        0.21398    0.35520    0.36260    1.000
    O1       O        0.43920    0.07710    0.39850    1.000
    O2       O        0.45060    0.13640    0.51210    1.000
    O3       O        0.07910    0.35450    0.13720    1.000
    O4       O        0.09700    0.43740    0.24790    1.000
    O5       O        0.51540    0.82200    0.31490    1.000
    O6       O        0.48840    0.12440    0.29760    1.000
    C1       C        0.42220    0.12850    0.43820    1.000
    C2       C        0.36220    0.18250    0.39310    1.000
    C3       C        0.27470    0.28290    0.37250    1.000
    C4       C        0.26640    0.24440    0.30360    1.000
    C5       C        0.17510    0.32880    0.25590    1.000
    C6       C        0.11350    0.37540    0.21130    1.000
    C7       C        0.50020    0.47380    0.22140    1.000
    C8       C        0.49900    0.47270    0.29060    1.000
    C9       C        0.32360    0.14120    0.24990    1.000
    H1       H        0.36550    0.14130    0.26680    1.000
    H2       H        0.30120    0.18380    0.20200    1.000
    H3       H        0.30860    0.06830    0.23920    1.000
    C10      C        0.18290    0.22930    0.15140    1.000
    H4       H        0.13960    0.23480    0.12060    1.000
    H5       H        0.19450    0.15510    0.15380    1.000
    H6       H        0.19940    0.27180    0.12640    1.000
    C11      C        0.49990    0.61050    0.12170    1.000
    H7       H        0.50390    0.68740    0.11980    1.000
    H8       H        0.46280    0.58750    0.07490    1.000
    H9       H        0.53330    0.57540    0.12310    1.000
    C12      C        0.50120    0.34080    0.12050    1.000
    H10      H        0.54020    0.35840    0.12940    1.000
    H11      H        0.47080    0.38230    0.07620    1.000
    H12      H        0.49350    0.26510    0.10850    1.000
    C13      C        0.31630    0.18900    0.31600    1.000
    C14      C        0.20670    0.27080    0.23590    1.000
    C15      C        0.49900    0.58080    0.19700    1.000
    C16      C        0.49990    0.36690    0.19640    1.000
    S5       S        0.32404    0.15460    0.28730    1.000
    S6       S        0.19398    0.25590    0.19090    1.000
    C17      C        0.27110    0.26910    0.34130    1.000
    C18      C        0.26280    0.22720    0.27460    1.000
    C19      C        0.35270    0.27980    0.49680    1.000
    H13      H        0.39020    0.24430    0.53320    1.000
    H14      H        0.32330    0.26130    0.51040    1.000
    H15      H        0.35870    0.35670    0.50090    1.000
    C20      C        0.21450    0.39180    0.39040    1.000
    H16      H        0.18170    0.44220    0.36360    1.000
    H17      H        0.25130    0.43030    0.42490    1.000
    H18      H        0.20660    0.34270    0.42190    1.000
    C21      C        0.33060    0.24440    0.41280    1.000
    C22      C        0.22050    0.32900    0.32880    1.000
    Eu2      Eu       0.00318    0.47455    0.37554    1.000
    S7       S        0.00132    0.09790    0.33050    1.000
    S8       S        0.99660    0.84560    0.32510    1.000
    S9       S        0.84259    0.75050    0.45750    1.000
    S10      S        0.71398    0.85520    0.36260    1.000
    O7       O        0.93920    0.57710    0.39850    1.000
    O8       O        0.95060    0.63640    0.51210    1.000
    O9       O        0.57910    0.85450    0.13720    1.000
    O10      O        0.59700    0.93740    0.24790    1.000
    O11      O        0.01540    0.32200    0.31490    1.000
    O12      O        0.98840    0.62440    0.29760    1.000
    C23      C        0.92220    0.62850    0.43820    1.000
    C24      C        0.86220    0.68250    0.39310    1.000
    C25      C        0.77470    0.78290    0.37250    1.000
    C26      C        0.76640    0.74440    0.30360    1.000
    C27      C        0.67510    0.82880    0.25590    1.000
    C28      C        0.61350    0.87540    0.21130    1.000
    C29      C        0.00020    0.97380    0.22140    1.000
    C30      C        0.99900    0.97270    0.29060    1.000
    C31      C        0.82360    0.64120    0.24990    1.000
    H19      H        0.86550    0.64130    0.26680    1.000
    H20      H        0.80120    0.68380    0.20200    1.000
    H21      H        0.80860    0.56830    0.23920    1.000
    C32      C        0.68290    0.72930    0.15140    1.000
    H22      H        0.63960    0.73480    0.12060    1.000
    H23      H        0.69450    0.65510    0.15380    1.000
    H24      H        0.69940    0.77180    0.12640    1.000
    C33      C        0.99990    0.11050    0.12170    1.000
    H25      H        0.00390    0.18740    0.11980    1.000
    H26      H        0.96280    0.08750    0.07490    1.000
    H27      H        0.03330    0.07540    0.12310    1.000
    C34      C        0.00120    0.84080    0.12050    1.000
    H28      H        0.04020    0.85840    0.12940    1.000
    H29      H        0.97080    0.88230    0.07620    1.000
    H30      H        0.99350    0.76510    0.10850    1.000
    C35      C        0.81630    0.68900    0.31600    1.000
    C36      C        0.70670    0.77080    0.23590    1.000
    C37      C        0.99900    0.08080    0.19700    1.000
    C38      C        0.99990    0.86690    0.19640    1.000
    S11      S        0.82404    0.65460    0.28730    1.000
    S12      S        0.69398    0.75590    0.19090    1.000
    C39      C        0.77110    0.76910    0.34130    1.000
    C40      C        0.76280    0.72720    0.27460    1.000
    C41      C        0.85270    0.77980    0.49680    1.000
    H31      H        0.89020    0.74430    0.53320    1.000
    H32      H        0.82330    0.76130    0.51040    1.000
    H33      H        0.85870    0.85670    0.50090    1.000
    C42      C        0.71450    0.89180    0.39040    1.000
    H34      H        0.68170    0.94220    0.36360    1.000
    H35      H        0.75130    0.93030    0.42490    1.000
    H36      H        0.70660    0.84270    0.42190    1.000
    C43      C        0.83060    0.74440    0.41280    1.000
    C44      C        0.72050    0.82900    0.32880    1.000
    Eu3      Eu       0.49682    0.97455    0.12446    1.000
    S13      S        0.49868    0.59790    0.16950    1.000
    S14      S        0.50340    0.34560    0.17490    1.000
    S15      S        0.65741    0.25050    0.04250    1.000
    S16      S        0.78602    0.35520    0.13740    1.000
    O13      O        0.56080    0.07710    0.10150    1.000
    O14      O        0.54940    0.13640    0.98790    1.000
    O15      O        0.92090    0.35450    0.36280    1.000
    O16      O        0.90300    0.43740    0.25210    1.000
    O17      O        0.48460    0.82200    0.18510    1.000
    O18      O        0.51160    0.12440    0.20240    1.000
    C45      C        0.57780    0.12850    0.06180    1.000
    C46      C        0.63780    0.18250    0.10690    1.000
    C47      C        0.72530    0.28290    0.12750    1.000
    C48      C        0.73360    0.24440    0.19640    1.000
    C49      C        0.82490    0.32880    0.24410    1.000
    C50      C        0.88650    0.37540    0.28870    1.000
    C51      C        0.49980    0.47380    0.27860    1.000
    C52      C        0.50100    0.47270    0.20940    1.000
    C53      C        0.67640    0.14120    0.25010    1.000
    H37      H        0.63450    0.14130    0.23320    1.000
    H38      H        0.69880    0.18380    0.29800    1.000
    H39      H        0.69140    0.06830    0.26080    1.000
    C54      C        0.81710    0.22930    0.34860    1.000
    H40      H        0.86040    0.23480    0.37940    1.000
    H41      H        0.80550    0.15510    0.34620    1.000
    H42      H        0.80060    0.27180    0.37360    1.000
    C55      C        0.50010    0.61050    0.37830    1.000
    H43      H        0.49610    0.68740    0.38020    1.000
    H44      H        0.53720    0.58750    0.42510    1.000
    H45      H        0.46670    0.57540    0.37690    1.000
    C56      C        0.49880    0.34080    0.37950    1.000
    H46      H        0.45980    0.35840    0.37060    1.000
    H47      H        0.52920    0.38230    0.42380    1.000
    H48      H        0.50650    0.26510    0.39150    1.000
    C57      C        0.68370    0.18900    0.18400    1.000
    C58      C        0.79330    0.27080    0.26410    1.000
    C59      C        0.50100    0.58080    0.30300    1.000
    C60      C        0.50010    0.36690    0.30360    1.000
    S17      S        0.67596    0.15460    0.21270    1.000
    S18      S        0.80602    0.25590    0.30910    1.000
    C61      C        0.72890    0.26910    0.15870    1.000
    C62      C        0.73720    0.22720    0.22540    1.000
    C63      C        0.64730    0.27980    0.00320    1.000
    H49      H        0.60980    0.24430    0.96680    1.000
    H50      H        0.67670    0.26130    0.98960    1.000
    H51      H        0.64130    0.35670    0.99910    1.000
    C64      C        0.78550    0.39180    0.10960    1.000
    H52      H        0.81830    0.44220    0.13640    1.000
    H53      H        0.74870    0.43030    0.07510    1.000
    H54      H        0.79340    0.34270    0.07810    1.000
    C65      C        0.66940    0.24440    0.08720    1.000
    C66      C        0.77950    0.32900    0.17120    1.000
    Eu4      Eu       0.99682    0.47455    0.12446    1.000
    S19      S        0.99868    0.09790    0.16950    1.000
    S20      S        0.00340    0.84560    0.17490    1.000
    S21      S        0.15741    0.75050    0.04250    1.000
    S22      S        0.28602    0.85520    0.13740    1.000
    O19      O        0.06080    0.57710    0.10150    1.000
    O20      O        0.04940    0.63640    0.98790    1.000
    O21      O        0.42090    0.85450    0.36280    1.000
    O22      O        0.40300    0.93740    0.25210    1.000
    O23      O        0.98460    0.32200    0.18510    1.000
    O24      O        0.01160    0.62440    0.20240    1.000
    C67      C        0.07780    0.62850    0.06180    1.000
    C68      C        0.13780    0.68250    0.10690    1.000
    C69      C        0.22530    0.78290    0.12750    1.000
    C70      C        0.23360    0.74440    0.19640    1.000
    C71      C        0.32490    0.82880    0.24410    1.000
    C72      C        0.38650    0.87540    0.28870    1.000
    C73      C        0.99980    0.97380    0.27860    1.000
    C74      C        0.00100    0.97270    0.20940    1.000
    C75      C        0.17640    0.64120    0.25010    1.000
    H55      H        0.13450    0.64130    0.23320    1.000
    H56      H        0.19880    0.68380    0.29800    1.000
    H57      H        0.19140    0.56830    0.26080    1.000
    C76      C        0.31710    0.72930    0.34860    1.000
    H58      H        0.36040    0.73480    0.37940    1.000
    H59      H        0.30550    0.65510    0.34620    1.000
    H60      H        0.30060    0.77180    0.37360    1.000
    C77      C        0.00010    0.11050    0.37830    1.000
    H61      H        0.99610    0.18740    0.38020    1.000
    H62      H        0.03720    0.08750    0.42510    1.000
    H63      H        0.96670    0.07540    0.37690    1.000
    C78      C        0.99880    0.84080    0.37950    1.000
    H64      H        0.95980    0.85840    0.37060    1.000
    H65      H        0.02920    0.88230    0.42380    1.000
    H66      H        0.00650    0.76510    0.39150    1.000
    C79      C        0.18370    0.68900    0.18400    1.000
    C80      C        0.29330    0.77080    0.26410    1.000
    C81      C        0.00100    0.08080    0.30300    1.000
    C82      C        0.00010    0.86690    0.30360    1.000
    S23      S        0.17596    0.65460    0.21270    1.000
    S24      S        0.30602    0.75590    0.30910    1.000
    C83      C        0.22890    0.76910    0.15870    1.000
    C84      C        0.23720    0.72720    0.22540    1.000
    C85      C        0.14730    0.77980    0.00320    1.000
    H67      H        0.10980    0.74430    0.96680    1.000
    H68      H        0.17670    0.76130    0.98960    1.000
    H69      H        0.14130    0.85670    0.99910    1.000
    C86      C        0.28550    0.89180    0.10960    1.000
    H70      H        0.31830    0.94220    0.13640    1.000
    H71      H        0.24870    0.93030    0.07510    1.000
    H72      H        0.29340    0.84270    0.07810    1.000
    C87      C        0.16940    0.74440    0.08720    1.000
    C88      C        0.27950    0.82900    0.17120    1.000
    Eu5      Eu       0.49682    0.02545    0.62446    1.000
    S25      S        0.49868    0.40210    0.66950    1.000
    S26      S        0.50340    0.65440    0.67490    1.000
    S27      S        0.65741    0.74950    0.54250    1.000
    S28      S        0.78602    0.64480    0.63740    1.000
    O25      O        0.56080    0.92290    0.60150    1.000
    O26      O        0.54940    0.86360    0.48790    1.000
    O27      O        0.92090    0.64550    0.86280    1.000
    O28      O        0.90300    0.56260    0.75210    1.000
    O29      O        0.48460    0.17800    0.68510    1.000
    O30      O        0.51160    0.87560    0.70240    1.000
    C89      C        0.57780    0.87150    0.56180    1.000
    C90      C        0.63780    0.81750    0.60690    1.000
    C91      C        0.72530    0.71710    0.62750    1.000
    C92      C        0.73360    0.75560    0.69640    1.000
    C93      C        0.82490    0.67120    0.74410    1.000
    C94      C        0.88650    0.62460    0.78870    1.000
    C95      C        0.49980    0.52620    0.77860    1.000
    C96      C        0.50100    0.52730    0.70940    1.000
    C97      C        0.67640    0.85880    0.75010    1.000
    H73      H        0.63450    0.85870    0.73320    1.000
    H74      H        0.69880    0.81620    0.79800    1.000
    H75      H        0.69140    0.93170    0.76080    1.000
    C98      C        0.81710    0.77070    0.84860    1.000
    H76      H        0.86040    0.76520    0.87940    1.000
    H77      H        0.80550    0.84490    0.84620    1.000
    H78      H        0.80060    0.72820    0.87360    1.000
    C99      C        0.50010    0.38950    0.87830    1.000
    H79      H        0.49610    0.31260    0.88020    1.000
    H80      H        0.53720    0.41250    0.92510    1.000
    H81      H        0.46670    0.42460    0.87690    1.000
    C100     C        0.49880    0.65920    0.87950    1.000
    H82      H        0.45980    0.64160    0.87060    1.000
    H83      H        0.52920    0.61770    0.92380    1.000
    H84      H        0.50650    0.73490    0.89150    1.000
    C101     C        0.68370    0.81100    0.68400    1.000
    C102     C        0.79330    0.72920    0.76410    1.000
    C103     C        0.50100    0.41920    0.80300    1.000
    C104     C        0.50010    0.63310    0.80360    1.000
    S29      S        0.67596    0.84540    0.71270    1.000
    S30      S        0.80602    0.74410    0.80910    1.000
    C105     C        0.72890    0.73090    0.65870    1.000
    C106     C        0.73720    0.77280    0.72540    1.000
    C107     C        0.64730    0.72020    0.50320    1.000
    H85      H        0.60980    0.75570    0.46680    1.000
    H86      H        0.67670    0.73870    0.48960    1.000
    H87      H        0.64130    0.64330    0.49910    1.000
    C108     C        0.78550    0.60820    0.60960    1.000
    H88      H        0.81830    0.55780    0.63640    1.000
    H89      H        0.74870    0.56970    0.57510    1.000
    H90      H        0.79340    0.65730    0.57810    1.000
    C109     C        0.66940    0.75560    0.58720    1.000
    C110     C        0.77950    0.67100    0.67120    1.000
    Eu6      Eu       0.99682    0.52545    0.62446    1.000
    S31      S        0.99868    0.90210    0.66950    1.000
    S32      S        0.00340    0.15440    0.67490    1.000
    S33      S        0.15741    0.24950    0.54250    1.000
    S34      S        0.28602    0.14480    0.63740    1.000
    O31      O        0.06080    0.42290    0.60150    1.000
    O32      O        0.04940    0.36360    0.48790    1.000
    O33      O        0.42090    0.14550    0.86280    1.000
    O34      O        0.40300    0.06260    0.75210    1.000
    O35      O        0.98460    0.67800    0.68510    1.000
    O36      O        0.01160    0.37560    0.70240    1.000
    C111     C        0.07780    0.37150    0.56180    1.000
    C112     C        0.13780    0.31750    0.60690    1.000
    C113     C        0.22530    0.21710    0.62750    1.000
    C114     C        0.23360    0.25560    0.69640    1.000
    C115     C        0.32490    0.17120    0.74410    1.000
    C116     C        0.38650    0.12460    0.78870    1.000
    C117     C        0.99980    0.02620    0.77860    1.000
    C118     C        0.00100    0.02730    0.70940    1.000
    C119     C        0.17640    0.35880    0.75010    1.000
    H91      H        0.13450    0.35870    0.73320    1.000
    H92      H        0.19880    0.31620    0.79800    1.000
    H93      H        0.19140    0.43170    0.76080    1.000
    C120     C        0.31710    0.27070    0.84860    1.000
    H94      H        0.36040    0.26520    0.87940    1.000
    H95      H        0.30550    0.34490    0.84620    1.000
    H96      H        0.30060    0.22820    0.87360    1.000
    C121     C        0.00010    0.88950    0.87830    1.000
    H97      H        0.99610    0.81260    0.88020    1.000
    H98      H        0.03720    0.91250    0.92510    1.000
    H99      H        0.96670    0.92460    0.87690    1.000
    C122     C        0.99880    0.15920    0.87950    1.000
    H100     H        0.95980    0.14160    0.87060    1.000
    H101     H        0.02920    0.11770    0.92380    1.000
    H102     H        0.00650    0.23490    0.89150    1.000
    C123     C        0.18370    0.31100    0.68400    1.000
    C124     C        0.29330    0.22920    0.76410    1.000
    C125     C        0.00100    0.91920    0.80300    1.000
    C126     C        0.00010    0.13310    0.80360    1.000
    S35      S        0.17596    0.34540    0.71270    1.000
    S36      S        0.30602    0.24410    0.80910    1.000
    C127     C        0.22890    0.23090    0.65870    1.000
    C128     C        0.23720    0.27280    0.72540    1.000
    C129     C        0.14730    0.22020    0.50320    1.000
    H103     H        0.10980    0.25570    0.46680    1.000
    H104     H        0.17670    0.23870    0.48960    1.000
    H105     H        0.14130    0.14330    0.49910    1.000
    C130     C        0.28550    0.10820    0.60960    1.000
    H106     H        0.31830    0.05780    0.63640    1.000
    H107     H        0.24870    0.06970    0.57510    1.000
    H108     H        0.29340    0.15730    0.57810    1.000
    C131     C        0.16940    0.25560    0.58720    1.000
    C132     C        0.27950    0.17100    0.67120    1.000
    Eu7      Eu       0.50318    0.02545    0.87554    1.000
    S37      S        0.50132    0.40210    0.83050    1.000
    S38      S        0.49660    0.65440    0.82510    1.000
    S39      S        0.34259    0.74950    0.95750    1.000
    S40      S        0.21398    0.64480    0.86260    1.000
    O37      O        0.43920    0.92290    0.89850    1.000
    O38      O        0.45060    0.86360    0.01210    1.000
    O39      O        0.07910    0.64550    0.63720    1.000
    O40      O        0.09700    0.56260    0.74790    1.000
    O41      O        0.51540    0.17800    0.81490    1.000
    O42      O        0.48840    0.87560    0.79760    1.000
    C133     C        0.42220    0.87150    0.93820    1.000
    C134     C        0.36220    0.81750    0.89310    1.000
    C135     C        0.27470    0.71710    0.87250    1.000
    C136     C        0.26640    0.75560    0.80360    1.000
    C137     C        0.17510    0.67120    0.75590    1.000
    C138     C        0.11350    0.62460    0.71130    1.000
    C139     C        0.50020    0.52620    0.72140    1.000
    C140     C        0.49900    0.52730    0.79060    1.000
    C141     C        0.32360    0.85880    0.74990    1.000
    H109     H        0.36550    0.85870    0.76680    1.000
    H110     H        0.30120    0.81620    0.70200    1.000
    H111     H        0.30860    0.93170    0.73920    1.000
    C142     C        0.18290    0.77070    0.65140    1.000
    H112     H        0.13960    0.76520    0.62060    1.000
    H113     H        0.19450    0.84490    0.65380    1.000
    H114     H        0.19940    0.72820    0.62640    1.000
    C143     C        0.49990    0.38950    0.62170    1.000
    H115     H        0.50390    0.31260    0.61980    1.000
    H116     H        0.46280    0.41250    0.57490    1.000
    H117     H        0.53330    0.42460    0.62310    1.000
    C144     C        0.50120    0.65920    0.62050    1.000
    H118     H        0.54020    0.64160    0.62940    1.000
    H119     H        0.47080    0.61770    0.57620    1.000
    H120     H        0.49350    0.73490    0.60850    1.000
    C145     C        0.31630    0.81100    0.81600    1.000
    C146     C        0.20670    0.72920    0.73590    1.000
    C147     C        0.49900    0.41920    0.69700    1.000
    C148     C        0.49990    0.63310    0.69640    1.000
    S41      S        0.32404    0.84540    0.78730    1.000
    S42      S        0.19398    0.74410    0.69090    1.000
    C149     C        0.27110    0.73090    0.84130    1.000
    C150     C        0.26280    0.77280    0.77460    1.000
    C151     C        0.35270    0.72020    0.99680    1.000
    H121     H        0.39020    0.75570    0.03320    1.000
    H122     H        0.32330    0.73870    0.01040    1.000
    H123     H        0.35870    0.64330    0.00090    1.000
    C152     C        0.21450    0.60820    0.89040    1.000
    H124     H        0.18170    0.55780    0.86360    1.000
    H125     H        0.25130    0.56970    0.92490    1.000
    H126     H        0.20660    0.65730    0.92190    1.000
    C153     C        0.33060    0.75560    0.91280    1.000
    C154     C        0.22050    0.67100    0.82880    1.000
    Eu8      Eu       0.00318    0.52545    0.87554    1.000
    S43      S        0.00132    0.90210    0.83050    1.000
    S44      S        0.99660    0.15440    0.82510    1.000
    S45      S        0.84259    0.24950    0.95750    1.000
    S46      S        0.71398    0.14480    0.86260    1.000
    O43      O        0.93920    0.42290    0.89850    1.000
    O44      O        0.95060    0.36360    0.01210    1.000
    O45      O        0.57910    0.14550    0.63720    1.000
    O46      O        0.59700    0.06260    0.74790    1.000
    O47      O        0.01540    0.67800    0.81490    1.000
    O48      O        0.98840    0.37560    0.79760    1.000
    C155     C        0.92220    0.37150    0.93820    1.000
    C156     C        0.86220    0.31750    0.89310    1.000
    C157     C        0.77470    0.21710    0.87250    1.000
    C158     C        0.76640    0.25560    0.80360    1.000
    C159     C        0.67510    0.17120    0.75590    1.000
    C160     C        0.61350    0.12460    0.71130    1.000
    C161     C        0.00020    0.02620    0.72140    1.000
    C162     C        0.99900    0.02730    0.79060    1.000
    C163     C        0.82360    0.35880    0.74990    1.000
    H127     H        0.86550    0.35870    0.76680    1.000
    H128     H        0.80120    0.31620    0.70200    1.000
    H129     H        0.80860    0.43170    0.73920    1.000
    C164     C        0.68290    0.27070    0.65140    1.000
    H130     H        0.63960    0.26520    0.62060    1.000
    H131     H        0.69450    0.34490    0.65380    1.000
    H132     H        0.69940    0.22820    0.62640    1.000
    C165     C        0.99990    0.88950    0.62170    1.000
    H133     H        0.00390    0.81260    0.61980    1.000
    H134     H        0.96280    0.91250    0.57490    1.000
    H135     H        0.03330    0.92460    0.62310    1.000
    C166     C        0.00120    0.15920    0.62050    1.000
    H136     H        0.04020    0.14160    0.62940    1.000
    H137     H        0.97080    0.11770    0.57620    1.000
    H138     H        0.99350    0.23490    0.60850    1.000
    C167     C        0.81630    0.31100    0.81600    1.000
    C168     C        0.70670    0.22920    0.73590    1.000
    C169     C        0.99900    0.91920    0.69700    1.000
    C170     C        0.99990    0.13310    0.69640    1.000
    S47      S        0.82404    0.34540    0.78730    1.000
    S48      S        0.69398    0.24410    0.69090    1.000
    C171     C        0.77110    0.23090    0.84130    1.000
    C172     C        0.76280    0.27280    0.77460    1.000
    C173     C        0.85270    0.22020    0.99680    1.000
    H139     H        0.89020    0.25570    0.03320    1.000
    H140     H        0.82330    0.23870    0.01040    1.000
    H141     H        0.85870    0.14330    0.00090    1.000
    C174     C        0.71450    0.10820    0.89040    1.000
    H142     H        0.68170    0.05780    0.86360    1.000
    H143     H        0.75130    0.06970    0.92490    1.000
    H144     H        0.70660    0.15730    0.92190    1.000
    C175     C        0.83060    0.25560    0.91280    1.000
    C176     C        0.72050    0.17100    0.82880    1.000
    C177     C        0.50000    0.77610    0.25000    1.000
    C178     C        0.50000    0.65750    0.25000    1.000
    C179     C        0.50000    0.16920    0.25000    1.000
    C180     C        0.50000    0.28970    0.25000    1.000
    C181     C        0.00000    0.27610    0.25000    1.000
    C182     C        0.00000    0.15750    0.25000    1.000
    C183     C        0.00000    0.66920    0.25000    1.000
    C184     C        0.00000    0.78970    0.25000    1.000
    C185     C        0.50000    0.22390    0.75000    1.000
    C186     C        0.50000    0.34250    0.75000    1.000
    C187     C        0.50000    0.83080    0.75000    1.000
    C188     C        0.50000    0.71030    0.75000    1.000
    C189     C        0.00000    0.72390    0.75000    1.000
    C190     C        0.00000    0.84250    0.75000    1.000
    C191     C        0.00000    0.33080    0.75000    1.000
    C192     C        0.00000    0.21030    0.75000    1.000
