# CIF file generated by openbabel 3.1.0, see https://openbabel.org
data_I
_chemical_name_common 'image0'
_cell_length_a 22.989
_cell_length_b 22.989
_cell_length_c 15.763
_cell_angle_alpha 90
_cell_angle_beta 90
_cell_angle_gamma 120
_space_group_name_H-M_alt 'P 1'
_space_group_name_Hall 'P 1'
loop_
    _symmetry_equiv_pos_as_xyz
    x,y,z
loop_
    _atom_site_label
    _atom_site_type_symbol
    _atom_site_fract_x
    _atom_site_fract_y
    _atom_site_fract_z
    _atom_site_occupancy
    C1       C        0.69950    0.02850    0.17630    1.000
    H1       H        0.73820    0.07030    0.17200    1.000
    C2       C        0.60880    0.94520    0.22640    1.000
    C3       C        0.55290    0.90140    0.27220    1.000
    H2       H        0.54360    0.91310    0.32480    1.000
    C4       C        0.51170    0.83960    0.23700    1.000
    H3       H        0.47380    0.80870    0.26670    1.000
    C5       C        0.52510    0.82150    0.15630    1.000
    H4       H        0.49600    0.77900    0.13450    1.000
    C6       C        0.62220    0.92740    0.14630    1.000
    C7       C        0.58000    0.86540    0.11010    1.000
    H5       H        0.58860    0.85410    0.05670    1.000
    C8       C        0.80820    0.20120    0.33980    1.000
    H6       H        0.82440    0.18970    0.38710    1.000
    C9       C        0.80340    0.25700    0.23610    1.000
    C10      C        0.81400    0.30390    0.17010    1.000
    H7       H        0.85440    0.34400    0.16580    1.000
    C11      C        0.74430    0.19720    0.24000    1.000
    C12      C        0.69050    0.17970    0.18020    1.000
    H8       H        0.65050    0.13890    0.18320    1.000
    C13      C        0.76370    0.28860    0.11380    1.000
    H9       H        0.77020    0.31940    0.07140    1.000
    C14      C        0.70170    0.22710    0.11750    1.000
    H10      H        0.66830    0.21840    0.07800    1.000
    N1       N        0.65890    0.01130    0.24330    1.000
    N2       N        0.74800    0.16040    0.30920    1.000
    N3       N        0.68120    0.98190    0.11520    1.000
    N4       N        0.84450    0.25900    0.30060    1.000
    Zn1      Zn       0.67190    0.07047    0.34160    1.000
    C15      C        0.36617    0.36183    0.50963    1.000
    H11      H        0.40487    0.40363    0.50533    1.000
    C16      C        0.27547    0.27853    0.55973    1.000
    C17      C        0.21957    0.23473    0.60553    1.000
    H12      H        0.21027    0.24643    0.65813    1.000
    C18      C        0.17837    0.17293    0.57033    1.000
    H13      H        0.14047    0.14203    0.60003    1.000
    C19      C        0.19177    0.15483    0.48963    1.000
    H14      H        0.16267    0.11233    0.46783    1.000
    C20      C        0.28887    0.26073    0.47963    1.000
    C21      C        0.24667    0.19873    0.44343    1.000
    H15      H        0.25527    0.18743    0.39003    1.000
    C22      C        0.47487    0.53453    0.67313    1.000
    H16      H        0.49107    0.52303    0.72043    1.000
    C23      C        0.47007    0.59033    0.56943    1.000
    C24      C        0.48067    0.63723    0.50343    1.000
    H17      H        0.52107    0.67733    0.49913    1.000
    C25      C        0.41097    0.53053    0.57333    1.000
    C26      C        0.35717    0.51303    0.51353    1.000
    H18      H        0.31717    0.47223    0.51653    1.000
    C27      C        0.43037    0.62193    0.44713    1.000
    H19      H        0.43687    0.65273    0.40473    1.000
    C28      C        0.36837    0.56043    0.45083    1.000
    H20      H        0.33497    0.55173    0.41133    1.000
    N5       N        0.32557    0.34463    0.57663    1.000
    N6       N        0.41467    0.49373    0.64253    1.000
    N7       N        0.34787    0.31523    0.44853    1.000
    N8       N        0.51117    0.59233    0.63393    1.000
    Zn2      Zn       0.33857    0.40380    0.67493    1.000
    C29      C        0.03283    0.69517    0.84297    1.000
    H21      H        0.07153    0.73697    0.83867    1.000
    C30      C        0.94213    0.61187    0.89307    1.000
    C31      C        0.88623    0.56807    0.93887    1.000
    H22      H        0.87693    0.57977    0.99147    1.000
    C32      C        0.84503    0.50627    0.90367    1.000
    H23      H        0.80713    0.47537    0.93337    1.000
    C33      C        0.85843    0.48817    0.82297    1.000
    H24      H        0.82933    0.44567    0.80117    1.000
    C34      C        0.95553    0.59407    0.81297    1.000
    C35      C        0.91333    0.53207    0.77677    1.000
    H25      H        0.92193    0.52077    0.72337    1.000
    C36      C        0.14153    0.86787    0.00647    1.000
    H26      H        0.15773    0.85637    0.05377    1.000
    C37      C        0.13673    0.92367    0.90277    1.000
    C38      C        0.14733    0.97057    0.83677    1.000
    H27      H        0.18773    0.01067    0.83247    1.000
    C39      C        0.07763    0.86387    0.90667    1.000
    C40      C        0.02383    0.84637    0.84687    1.000
    H28      H        0.98383    0.80557    0.84987    1.000
    C41      C        0.09703    0.95527    0.78047    1.000
    H29      H        0.10353    0.98607    0.73807    1.000
    C42      C        0.03503    0.89377    0.78417    1.000
    H30      H        0.00163    0.88507    0.74467    1.000
    N9       N        0.99223    0.67797    0.90997    1.000
    N10      N        0.08133    0.82707    0.97587    1.000
    N11      N        0.01453    0.64857    0.78187    1.000
    N12      N        0.17783    0.92567    0.96727    1.000
    Zn3      Zn       0.00523    0.73714    0.00827    1.000
    C43      C        0.97150    0.67100    0.17630    1.000
    H31      H        0.92970    0.66790    0.17200    1.000
    C44      C        0.05480    0.66360    0.22640    1.000
    C45      C        0.09860    0.65150    0.27220    1.000
    H32      H        0.08690    0.63050    0.32480    1.000
    C46      C        0.16040    0.67210    0.23700    1.000
    H33      H        0.19130    0.66510    0.26670    1.000
    C47      C        0.17850    0.70360    0.15630    1.000
    H34      H        0.22100    0.71700    0.13450    1.000
    C48      C        0.07260    0.69480    0.14630    1.000
    C49      C        0.13460    0.71460    0.11010    1.000
    H35      H        0.14590    0.73450    0.05670    1.000
    C50      C        0.79880    0.60700    0.33980    1.000
    H36      H        0.81030    0.63470    0.38710    1.000
    C51      C        0.74300    0.54640    0.23610    1.000
    C52      C        0.69610    0.51010    0.17010    1.000
    H37      H        0.65600    0.51040    0.16580    1.000
    C53      C        0.80280    0.54710    0.24000    1.000
    C54      C        0.82030    0.51080    0.18020    1.000
    H38      H        0.86110    0.51160    0.18320    1.000
    C55      C        0.71140    0.47510    0.11380    1.000
    H39      H        0.68060    0.45080    0.07140    1.000
    C56      C        0.77290    0.47460    0.11750    1.000
    H40      H        0.78160    0.44990    0.07800    1.000
    N13      N        0.98870    0.64760    0.24330    1.000
    N14      N        0.83960    0.58760    0.30920    1.000
    N15      N        0.01810    0.69930    0.11520    1.000
    N16      N        0.74100    0.58550    0.30060    1.000
    Zn4      Zn       0.92953    0.60143    0.34160    1.000
    C57      C        0.63817    0.00433    0.50963    1.000
    H41      H        0.59637    0.00123    0.50533    1.000
    C58      C        0.72147    0.99693    0.55973    1.000
    C59      C        0.76527    0.98483    0.60553    1.000
    H42      H        0.75357    0.96383    0.65813    1.000
    C60      C        0.82707    0.00543    0.57033    1.000
    H43      H        0.85797    0.99843    0.60003    1.000
    C61      C        0.84517    0.03693    0.48963    1.000
    H44      H        0.88767    0.05033    0.46783    1.000
    C62      C        0.73927    0.02813    0.47963    1.000
    C63      C        0.80127    0.04793    0.44343    1.000
    H45      H        0.81257    0.06783    0.39003    1.000
    C64      C        0.46547    0.94033    0.67313    1.000
    H46      H        0.47697    0.96803    0.72043    1.000
    C65      C        0.40967    0.87973    0.56943    1.000
    C66      C        0.36277    0.84343    0.50343    1.000
    H47      H        0.32267    0.84373    0.49913    1.000
    C67      C        0.46947    0.88043    0.57333    1.000
    C68      C        0.48697    0.84413    0.51353    1.000
    H48      H        0.52777    0.84493    0.51653    1.000
    C69      C        0.37807    0.80843    0.44713    1.000
    H49      H        0.34727    0.78413    0.40473    1.000
    C70      C        0.43957    0.80793    0.45083    1.000
    H50      H        0.44827    0.78323    0.41133    1.000
    N17      N        0.65537    0.98093    0.57663    1.000
    N18      N        0.50627    0.92093    0.64253    1.000
    N19      N        0.68477    0.03263    0.44853    1.000
    N20      N        0.40767    0.91883    0.63393    1.000
    Zn5      Zn       0.59620    0.93476    0.67493    1.000
    C71      C        0.30483    0.33767    0.84297    1.000
    H51      H        0.26303    0.33457    0.83867    1.000
    C72      C        0.38813    0.33027    0.89307    1.000
    C73      C        0.43193    0.31817    0.93887    1.000
    H52      H        0.42023    0.29717    0.99147    1.000
    C74      C        0.49373    0.33877    0.90367    1.000
    H53      H        0.52463    0.33177    0.93337    1.000
    C75      C        0.51183    0.37027    0.82297    1.000
    H54      H        0.55433    0.38367    0.80117    1.000
    C76      C        0.40593    0.36147    0.81297    1.000
    C77      C        0.46793    0.38127    0.77677    1.000
    H55      H        0.47923    0.40117    0.72337    1.000
    C78      C        0.13213    0.27367    0.00647    1.000
    H56      H        0.14363    0.30137    0.05377    1.000
    C79      C        0.07633    0.21307    0.90277    1.000
    C80      C        0.02943    0.17677    0.83677    1.000
    H57      H        0.98933    0.17707    0.83247    1.000
    C81      C        0.13613    0.21377    0.90667    1.000
    C82      C        0.15363    0.17747    0.84687    1.000
    H58      H        0.19443    0.17827    0.84987    1.000
    C83      C        0.04473    0.14177    0.78047    1.000
    H59      H        0.01393    0.11747    0.73807    1.000
    C84      C        0.10623    0.14127    0.78417    1.000
    H60      H        0.11493    0.11657    0.74467    1.000
    N21      N        0.32203    0.31427    0.90997    1.000
    N22      N        0.17293    0.25427    0.97587    1.000
    N23      N        0.35143    0.36597    0.78187    1.000
    N24      N        0.07433    0.25217    0.96727    1.000
    Zn6      Zn       0.26286    0.26810    0.00827    1.000
    C85      C        0.32900    0.30050    0.17630    1.000
    H61      H        0.33210    0.26180    0.17200    1.000
    C86      C        0.33640    0.39120    0.22640    1.000
    C87      C        0.34850    0.44710    0.27220    1.000
    H62      H        0.36950    0.45640    0.32480    1.000
    C88      C        0.32790    0.48830    0.23700    1.000
    H63      H        0.33490    0.52620    0.26670    1.000
    C89      C        0.29640    0.47490    0.15630    1.000
    H64      H        0.28300    0.50400    0.13450    1.000
    C90      C        0.30520    0.37780    0.14630    1.000
    C91      C        0.28540    0.42000    0.11010    1.000
    H65      H        0.26550    0.41140    0.05670    1.000
    C92      C        0.39300    0.19180    0.33980    1.000
    H66      H        0.36530    0.17560    0.38710    1.000
    C93      C        0.45360    0.19660    0.23610    1.000
    C94      C        0.48990    0.18600    0.17010    1.000
    H67      H        0.48960    0.14560    0.16580    1.000
    C95      C        0.45290    0.25570    0.24000    1.000
    C96      C        0.48920    0.30950    0.18020    1.000
    H68      H        0.48840    0.34950    0.18320    1.000
    C97      C        0.52490    0.23630    0.11380    1.000
    H69      H        0.54920    0.22980    0.07140    1.000
    C98      C        0.52540    0.29830    0.11750    1.000
    H70      H        0.55010    0.33170    0.07800    1.000
    N25      N        0.35240    0.34110    0.24330    1.000
    N26      N        0.41240    0.25200    0.30920    1.000
    N27      N        0.30070    0.31880    0.11520    1.000
    N28      N        0.41450    0.15550    0.30060    1.000
    Zn7      Zn       0.39857    0.32810    0.34160    1.000
    C99      C        0.99567    0.63383    0.50963    1.000
    H71      H        0.99877    0.59513    0.50533    1.000
    C100     C        0.00307    0.72453    0.55973    1.000
    C101     C        0.01517    0.78043    0.60553    1.000
    H72      H        0.03617    0.78973    0.65813    1.000
    C102     C        0.99457    0.82163    0.57033    1.000
    H73      H        0.00157    0.85953    0.60003    1.000
    C103     C        0.96307    0.80823    0.48963    1.000
    H74      H        0.94967    0.83733    0.46783    1.000
    C104     C        0.97187    0.71113    0.47963    1.000
    C105     C        0.95207    0.75333    0.44343    1.000
    H75      H        0.93217    0.74473    0.39003    1.000
    C106     C        0.05967    0.52513    0.67313    1.000
    H76      H        0.03197    0.50893    0.72043    1.000
    C107     C        0.12027    0.52993    0.56943    1.000
    C108     C        0.15657    0.51933    0.50343    1.000
    H77      H        0.15627    0.47893    0.49913    1.000
    C109     C        0.11957    0.58903    0.57333    1.000
    C110     C        0.15587    0.64283    0.51353    1.000
    H78      H        0.15507    0.68283    0.51653    1.000
    C111     C        0.19157    0.56963    0.44713    1.000
    H79      H        0.21587    0.56313    0.40473    1.000
    C112     C        0.19207    0.63163    0.45083    1.000
    H80      H        0.21677    0.66503    0.41133    1.000
    N29      N        0.01907    0.67443    0.57663    1.000
    N30      N        0.07907    0.58533    0.64253    1.000
    N31      N        0.96737    0.65213    0.44853    1.000
    N32      N        0.08117    0.48883    0.63393    1.000
    Zn8      Zn       0.06524    0.66143    0.67493    1.000
    C113     C        0.66233    0.96717    0.84297    1.000
    H81      H        0.66543    0.92847    0.83867    1.000
    C114     C        0.66973    0.05787    0.89307    1.000
    C115     C        0.68183    0.11377    0.93887    1.000
    H82      H        0.70283    0.12307    0.99147    1.000
    C116     C        0.66123    0.15497    0.90367    1.000
    H83      H        0.66823    0.19287    0.93337    1.000
    C117     C        0.62973    0.14157    0.82297    1.000
    H84      H        0.61633    0.17067    0.80117    1.000
    C118     C        0.63853    0.04447    0.81297    1.000
    C119     C        0.61873    0.08667    0.77677    1.000
    H85      H        0.59883    0.07807    0.72337    1.000
    C120     C        0.72633    0.85847    0.00647    1.000
    H86      H        0.69863    0.84227    0.05377    1.000
    C121     C        0.78693    0.86327    0.90277    1.000
    C122     C        0.82323    0.85267    0.83677    1.000
    H87      H        0.82293    0.81227    0.83247    1.000
    C123     C        0.78623    0.92237    0.90667    1.000
    C124     C        0.82253    0.97617    0.84687    1.000
    H88      H        0.82173    0.01617    0.84987    1.000
    C125     C        0.85823    0.90297    0.78047    1.000
    H89      H        0.88253    0.89647    0.73807    1.000
    C126     C        0.85873    0.96497    0.78417    1.000
    H90      H        0.88343    0.99837    0.74467    1.000
    N33      N        0.68573    0.00777    0.90997    1.000
    N34      N        0.74573    0.91867    0.97587    1.000
    N35      N        0.63403    0.98547    0.78187    1.000
    N36      N        0.74783    0.82217    0.96727    1.000
    Zn9      Zn       0.73190    0.99477    0.00827    1.000
    C127     C        0.30050    0.97150    0.82370    1.000
    H91      H        0.26180    0.92970    0.82800    1.000
    C128     C        0.39120    0.05480    0.77360    1.000
    C129     C        0.44710    0.09860    0.72780    1.000
    H92      H        0.45640    0.08690    0.67520    1.000
    C130     C        0.48830    0.16040    0.76300    1.000
    H93      H        0.52620    0.19130    0.73330    1.000
    C131     C        0.47490    0.17850    0.84370    1.000
    H94      H        0.50400    0.22100    0.86550    1.000
    C132     C        0.37780    0.07260    0.85370    1.000
    C133     C        0.42000    0.13460    0.88990    1.000
    H95      H        0.41140    0.14590    0.94330    1.000
    C134     C        0.19180    0.79880    0.66020    1.000
    H96      H        0.17560    0.81030    0.61290    1.000
    C135     C        0.19660    0.74300    0.76390    1.000
    C136     C        0.18600    0.69610    0.82990    1.000
    H97      H        0.14560    0.65600    0.83420    1.000
    C137     C        0.25570    0.80280    0.76000    1.000
    C138     C        0.30950    0.82030    0.81980    1.000
    H98      H        0.34950    0.86110    0.81680    1.000
    C139     C        0.23630    0.71140    0.88620    1.000
    H99      H        0.22980    0.68060    0.92860    1.000
    C140     C        0.29830    0.77290    0.88250    1.000
    H100     H        0.33170    0.78160    0.92200    1.000
    N37      N        0.34110    0.98870    0.75670    1.000
    N38      N        0.25200    0.83960    0.69080    1.000
    N39      N        0.31880    0.01810    0.88480    1.000
    N40      N        0.15550    0.74100    0.69940    1.000
    Zn10     Zn       0.32810    0.92953    0.65840    1.000
    C141     C        0.96717    0.30483    0.15703    1.000
    H101     H        0.92847    0.26303    0.16133    1.000
    C142     C        0.05787    0.38813    0.10693    1.000
    C143     C        0.11377    0.43193    0.06113    1.000
    H102     H        0.12307    0.42023    0.00853    1.000
    C144     C        0.15497    0.49373    0.09633    1.000
    H103     H        0.19287    0.52463    0.06663    1.000
    C145     C        0.14157    0.51183    0.17703    1.000
    H104     H        0.17067    0.55433    0.19883    1.000
    C146     C        0.04447    0.40593    0.18703    1.000
    C147     C        0.08667    0.46793    0.22323    1.000
    H105     H        0.07807    0.47923    0.27663    1.000
    C148     C        0.85847    0.13213    0.99353    1.000
    H106     H        0.84227    0.14363    0.94623    1.000
    C149     C        0.86327    0.07633    0.09723    1.000
    C150     C        0.85267    0.02943    0.16323    1.000
    H107     H        0.81227    0.98933    0.16753    1.000
    C151     C        0.92237    0.13613    0.09333    1.000
    C152     C        0.97617    0.15363    0.15313    1.000
    H108     H        0.01617    0.19443    0.15013    1.000
    C153     C        0.90297    0.04473    0.21953    1.000
    H109     H        0.89647    0.01393    0.26193    1.000
    C154     C        0.96497    0.10623    0.21583    1.000
    H110     H        0.99837    0.11493    0.25533    1.000
    N41      N        0.00777    0.32203    0.09003    1.000
    N42      N        0.91867    0.17293    0.02413    1.000
    N43      N        0.98547    0.35143    0.21813    1.000
    N44      N        0.82217    0.07433    0.03273    1.000
    Zn11     Zn       0.99477    0.26286    0.99173    1.000
    C155     C        0.63383    0.63817    0.49037    1.000
    H111     H        0.59513    0.59637    0.49467    1.000
    C156     C        0.72453    0.72147    0.44027    1.000
    C157     C        0.78043    0.76527    0.39447    1.000
    H112     H        0.78973    0.75357    0.34187    1.000
    C158     C        0.82163    0.82707    0.42967    1.000
    H113     H        0.85953    0.85797    0.39997    1.000
    C159     C        0.80823    0.84517    0.51037    1.000
    H114     H        0.83733    0.88767    0.53217    1.000
    C160     C        0.71113    0.73927    0.52037    1.000
    C161     C        0.75333    0.80127    0.55657    1.000
    H115     H        0.74473    0.81257    0.60997    1.000
    C162     C        0.52513    0.46547    0.32687    1.000
    H116     H        0.50893    0.47697    0.27957    1.000
    C163     C        0.52993    0.40967    0.43057    1.000
    C164     C        0.51933    0.36277    0.49657    1.000
    H117     H        0.47893    0.32267    0.50087    1.000
    C165     C        0.58903    0.46947    0.42667    1.000
    C166     C        0.64283    0.48697    0.48647    1.000
    H118     H        0.68283    0.52777    0.48347    1.000
    C167     C        0.56963    0.37807    0.55287    1.000
    H119     H        0.56313    0.34727    0.59527    1.000
    C168     C        0.63163    0.43957    0.54917    1.000
    H120     H        0.66503    0.44827    0.58867    1.000
    N45      N        0.67443    0.65537    0.42337    1.000
    N46      N        0.58533    0.50627    0.35747    1.000
    N47      N        0.65213    0.68477    0.55147    1.000
    N48      N        0.48883    0.40767    0.36607    1.000
    Zn12     Zn       0.66143    0.59620    0.32507    1.000
    C169     C        0.02850    0.32900    0.82370    1.000
    H121     H        0.07030    0.33210    0.82800    1.000
    C170     C        0.94520    0.33640    0.77360    1.000
    C171     C        0.90140    0.34850    0.72780    1.000
    H122     H        0.91310    0.36950    0.67520    1.000
    C172     C        0.83960    0.32790    0.76300    1.000
    H123     H        0.80870    0.33490    0.73330    1.000
    C173     C        0.82150    0.29640    0.84370    1.000
    H124     H        0.77900    0.28300    0.86550    1.000
    C174     C        0.92740    0.30520    0.85370    1.000
    C175     C        0.86540    0.28540    0.88990    1.000
    H125     H        0.85410    0.26550    0.94330    1.000
    C176     C        0.20120    0.39300    0.66020    1.000
    H126     H        0.18970    0.36530    0.61290    1.000
    C177     C        0.25700    0.45360    0.76390    1.000
    C178     C        0.30390    0.48990    0.82990    1.000
    H127     H        0.34400    0.48960    0.83420    1.000
    C179     C        0.19720    0.45290    0.76000    1.000
    C180     C        0.17970    0.48920    0.81980    1.000
    H128     H        0.13890    0.48840    0.81680    1.000
    C181     C        0.28860    0.52490    0.88620    1.000
    H129     H        0.31940    0.54920    0.92860    1.000
    C182     C        0.22710    0.52540    0.88250    1.000
    H130     H        0.21840    0.55010    0.92200    1.000
    N49      N        0.01130    0.35240    0.75670    1.000
    N50      N        0.16040    0.41240    0.69080    1.000
    N51      N        0.98190    0.30070    0.88480    1.000
    N52      N        0.25900    0.41450    0.69940    1.000
    Zn13     Zn       0.07047    0.39857    0.65840    1.000
    C183     C        0.69517    0.66233    0.15703    1.000
    H131     H        0.73697    0.66543    0.16133    1.000
    C184     C        0.61187    0.66973    0.10693    1.000
    C185     C        0.56807    0.68183    0.06113    1.000
    H132     H        0.57977    0.70283    0.00853    1.000
    C186     C        0.50627    0.66123    0.09633    1.000
    H133     H        0.47537    0.66823    0.06663    1.000
    C187     C        0.48817    0.62973    0.17703    1.000
    H134     H        0.44567    0.61633    0.19883    1.000
    C188     C        0.59407    0.63853    0.18703    1.000
    C189     C        0.53207    0.61873    0.22323    1.000
    H135     H        0.52077    0.59883    0.27663    1.000
    C190     C        0.86787    0.72633    0.99353    1.000
    H136     H        0.85637    0.69863    0.94623    1.000
    C191     C        0.92367    0.78693    0.09723    1.000
    C192     C        0.97057    0.82323    0.16323    1.000
    H137     H        0.01067    0.82293    0.16753    1.000
    C193     C        0.86387    0.78623    0.09333    1.000
    C194     C        0.84637    0.82253    0.15313    1.000
    H138     H        0.80557    0.82173    0.15013    1.000
    C195     C        0.95527    0.85823    0.21953    1.000
    H139     H        0.98607    0.88253    0.26193    1.000
    C196     C        0.89377    0.85873    0.21583    1.000
    H140     H        0.88507    0.88343    0.25533    1.000
    N53      N        0.67797    0.68573    0.09003    1.000
    N54      N        0.82707    0.74573    0.02413    1.000
    N55      N        0.64857    0.63403    0.21813    1.000
    N56      N        0.92567    0.74783    0.03273    1.000
    Zn14     Zn       0.73714    0.73190    0.99173    1.000
    C197     C        0.36183    0.99567    0.49037    1.000
    H141     H        0.40363    0.99877    0.49467    1.000
    C198     C        0.27853    0.00307    0.44027    1.000
    C199     C        0.23473    0.01517    0.39447    1.000
    H142     H        0.24643    0.03617    0.34187    1.000
    C200     C        0.17293    0.99457    0.42967    1.000
    H143     H        0.14203    0.00157    0.39997    1.000
    C201     C        0.15483    0.96307    0.51037    1.000
    H144     H        0.11233    0.94967    0.53217    1.000
    C202     C        0.26073    0.97187    0.52037    1.000
    C203     C        0.19873    0.95207    0.55657    1.000
    H145     H        0.18743    0.93217    0.60997    1.000
    C204     C        0.53453    0.05967    0.32687    1.000
    H146     H        0.52303    0.03197    0.27957    1.000
    C205     C        0.59033    0.12027    0.43057    1.000
    C206     C        0.63723    0.15657    0.49657    1.000
    H147     H        0.67733    0.15627    0.50087    1.000
    C207     C        0.53053    0.11957    0.42667    1.000
    C208     C        0.51303    0.15587    0.48647    1.000
    H148     H        0.47223    0.15507    0.48347    1.000
    C209     C        0.62193    0.19157    0.55287    1.000
    H149     H        0.65273    0.21587    0.59527    1.000
    C210     C        0.56043    0.19207    0.54917    1.000
    H150     H        0.55173    0.21677    0.58867    1.000
    N57      N        0.34463    0.01907    0.42337    1.000
    N58      N        0.49373    0.07907    0.35747    1.000
    N59      N        0.31523    0.96737    0.55147    1.000
    N60      N        0.59233    0.08117    0.36607    1.000
    Zn15     Zn       0.40380    0.06524    0.32507    1.000
    C211     C        0.67100    0.69950    0.82370    1.000
    H151     H        0.66790    0.73820    0.82800    1.000
    C212     C        0.66360    0.60880    0.77360    1.000
    C213     C        0.65150    0.55290    0.72780    1.000
    H152     H        0.63050    0.54360    0.67520    1.000
    C214     C        0.67210    0.51170    0.76300    1.000
    H153     H        0.66510    0.47380    0.73330    1.000
    C215     C        0.70360    0.52510    0.84370    1.000
    H154     H        0.71700    0.49600    0.86550    1.000
    C216     C        0.69480    0.62220    0.85370    1.000
    C217     C        0.71460    0.58000    0.88990    1.000
    H155     H        0.73450    0.58860    0.94330    1.000
    C218     C        0.60700    0.80820    0.66020    1.000
    H156     H        0.63470    0.82440    0.61290    1.000
    C219     C        0.54640    0.80340    0.76390    1.000
    C220     C        0.51010    0.81400    0.82990    1.000
    H157     H        0.51040    0.85440    0.83420    1.000
    C221     C        0.54710    0.74430    0.76000    1.000
    C222     C        0.51080    0.69050    0.81980    1.000
    H158     H        0.51160    0.65050    0.81680    1.000
    C223     C        0.47510    0.76370    0.88620    1.000
    H159     H        0.45080    0.77020    0.92860    1.000
    C224     C        0.47460    0.70170    0.88250    1.000
    H160     H        0.44990    0.66830    0.92200    1.000
    N61      N        0.64760    0.65890    0.75670    1.000
    N62      N        0.58760    0.74800    0.69080    1.000
    N63      N        0.69930    0.68120    0.88480    1.000
    N64      N        0.58550    0.84450    0.69940    1.000
    Zn16     Zn       0.60143    0.67190    0.65840    1.000
    C225     C        0.33767    0.03283    0.15703    1.000
    H161     H        0.33457    0.07153    0.16133    1.000
    C226     C        0.33027    0.94213    0.10693    1.000
    C227     C        0.31817    0.88623    0.06113    1.000
    H162     H        0.29717    0.87693    0.00853    1.000
    C228     C        0.33877    0.84503    0.09633    1.000
    H163     H        0.33177    0.80713    0.06663    1.000
    C229     C        0.37027    0.85843    0.17703    1.000
    H164     H        0.38367    0.82933    0.19883    1.000
    C230     C        0.36147    0.95553    0.18703    1.000
    C231     C        0.38127    0.91333    0.22323    1.000
    H165     H        0.40117    0.92193    0.27663    1.000
    C232     C        0.27367    0.14153    0.99353    1.000
    H166     H        0.30137    0.15773    0.94623    1.000
    C233     C        0.21307    0.13673    0.09723    1.000
    C234     C        0.17677    0.14733    0.16323    1.000
    H167     H        0.17707    0.18773    0.16753    1.000
    C235     C        0.21377    0.07763    0.09333    1.000
    C236     C        0.17747    0.02383    0.15313    1.000
    H168     H        0.17827    0.98383    0.15013    1.000
    C237     C        0.14177    0.09703    0.21953    1.000
    H169     H        0.11747    0.10353    0.26193    1.000
    C238     C        0.14127    0.03503    0.21583    1.000
    H170     H        0.11657    0.00163    0.25533    1.000
    N65      N        0.31427    0.99223    0.09003    1.000
    N66      N        0.25427    0.08133    0.02413    1.000
    N67      N        0.36597    0.01453    0.21813    1.000
    N68      N        0.25217    0.17783    0.03273    1.000
    Zn17     Zn       0.26810    0.00523    0.99173    1.000
    C239     C        0.00433    0.36617    0.49037    1.000
    H171     H        0.00123    0.40487    0.49467    1.000
    C240     C        0.99693    0.27547    0.44027    1.000
    C241     C        0.98483    0.21957    0.39447    1.000
    H172     H        0.96383    0.21027    0.34187    1.000
    C242     C        0.00543    0.17837    0.42967    1.000
    H173     H        0.99843    0.14047    0.39997    1.000
    C243     C        0.03693    0.19177    0.51037    1.000
    H174     H        0.05033    0.16267    0.53217    1.000
    C244     C        0.02813    0.28887    0.52037    1.000
    C245     C        0.04793    0.24667    0.55657    1.000
    H175     H        0.06783    0.25527    0.60997    1.000
    C246     C        0.94033    0.47487    0.32687    1.000
    H176     H        0.96803    0.49107    0.27957    1.000
    C247     C        0.87973    0.47007    0.43057    1.000
    C248     C        0.84343    0.48067    0.49657    1.000
    H177     H        0.84373    0.52107    0.50087    1.000
    C249     C        0.88043    0.41097    0.42667    1.000
    C250     C        0.84413    0.35717    0.48647    1.000
    H178     H        0.84493    0.31717    0.48347    1.000
    C251     C        0.80843    0.43037    0.55287    1.000
    H179     H        0.78413    0.43687    0.59527    1.000
    C252     C        0.80793    0.36837    0.54917    1.000
    H180     H        0.78323    0.33497    0.58867    1.000
    N69      N        0.98093    0.32557    0.42337    1.000
    N70      N        0.92093    0.41467    0.35747    1.000
    N71      N        0.03263    0.34787    0.55147    1.000
    N72      N        0.91883    0.51117    0.36607    1.000
    Zn18     Zn       0.93476    0.33857    0.32507    1.000
