# CIF file generated by openbabel 3.1.0, see https://openbabel.org
data_I
_chemical_name_common 'image0'
_cell_length_a 12.5087
_cell_length_b 32.165
_cell_length_c 7.6022
_cell_angle_alpha 90
_cell_angle_beta 98.833
_cell_angle_gamma 90
_space_group_name_H-M_alt 'P 1'
_space_group_name_Hall 'P 1'
loop_
    _symmetry_equiv_pos_as_xyz
    x,y,z
loop_
    _atom_site_label
    _atom_site_type_symbol
    _atom_site_fract_x
    _atom_site_fract_y
    _atom_site_fract_z
    _atom_site_occupancy
    Dy1      Dy       0.97101    0.61496    0.19016    1.000
    O1       O        0.13290    0.59130    0.09880    1.000
    O2       O        0.81600    0.58418    0.27560    1.000
    Cd1      Cd       0.47282    0.55070    0.18975    1.000
    N1       N        0.54900    0.60190    0.03580    1.000
    Cd2      Cd       0.07617    0.76236    0.44249    1.000
    N2       N        0.57680    0.66849    0.98170    1.000
    Cl1      Cl       0.97405    0.73334    0.66360    1.000
    C1       C        0.29670    0.61980    0.25260    1.000
    C2       C        0.65140    0.61180    0.11330    1.000
    C3       C        0.27300    0.65880    0.29650    1.000
    C4       C        0.71200    0.61680    0.67070    1.000
    H1       H        0.74690    0.59330    0.72270    1.000
    C5       C        0.66850    0.65420    0.07950    1.000
    C6       C        0.44500    0.64400    0.40030    1.000
    C7       C        0.24390    0.60740    0.68690    1.000
    H2       H        0.21340    0.58440    0.62380    1.000
    C8       C        0.50720    0.63760    0.95720    1.000
    C9       C        0.76130    0.68320    0.13800    1.000
    C10      C        0.71580    0.58050    0.22870    1.000
    N3       N        0.76570    0.65410    0.68350    1.000
    N4       N        0.18220    0.64150    0.69280    1.000
    C11      C        0.23250    0.58630    0.14850    1.000
    C12      C        0.71680    0.68590    0.60160    1.000
    H3       H        0.75450    0.71090    0.60620    1.000
    C13      C        0.39650    0.63950    0.86570    1.000
    C14      C        0.55630    0.64840    0.49600    1.000
    C15      C        0.22870    0.67490    0.77950    1.000
    H4       H        0.18770    0.69900    0.78020    1.000
    O3       O        0.66190    0.54928    0.27320    1.000
    C16      C        0.61180    0.68530    0.50730    1.000
    H5       H        0.58040    0.70930    0.45360    1.000
    C17      C        0.34980    0.60460    0.76940    1.000
    H6       H        0.38960    0.58040    0.76210    1.000
    O4       O        0.74080    0.72135    0.12680    1.000
    C18      C        0.33460    0.67550    0.86830    1.000
    H7       H        0.36320    0.69920    0.92780    1.000
    C19      C        0.60660    0.61330    0.58140    1.000
    H8       H        0.57000    0.58800    0.57840    1.000
    O5       O        0.90420    0.56201    0.98540    1.000
    H9       H        0.88500    0.53590    0.02330    1.000
    H10      H        0.83820    0.57190    0.00750    1.000
    N5       N        0.37010    0.67490    0.39140    1.000
    H11      H        0.37990    0.69950    0.43520    1.000
    N6       N        0.40360    0.61010    0.31720    1.000
    C20      C        0.17860    0.68710    0.27540    1.000
    Cl2      Cl       0.45875    0.48745    0.98860    1.000
    O6       O        0.19610    0.72295    0.33430    1.000
    O7       O        0.85290    0.66850    0.19450    1.000
    O8       O        0.08760    0.67335    0.20800    1.000
    O9       O        0.28300    0.55400    0.11240    1.000
    Dy2      Dy       0.47101    0.11496    0.19016    1.000
    O10      O        0.63290    0.09130    0.09880    1.000
    O11      O        0.31600    0.08418    0.27560    1.000
    Cd3      Cd       0.97282    0.05070    0.18975    1.000
    N7       N        0.04900    0.10190    0.03580    1.000
    Cd4      Cd       0.57617    0.26236    0.44249    1.000
    N8       N        0.07680    0.16849    0.98170    1.000
    Cl3      Cl       0.47405    0.23334    0.66360    1.000
    C21      C        0.79670    0.11980    0.25260    1.000
    C22      C        0.15140    0.11180    0.11330    1.000
    C23      C        0.77300    0.15880    0.29650    1.000
    C24      C        0.21200    0.11680    0.67070    1.000
    H12      H        0.24690    0.09330    0.72270    1.000
    C25      C        0.16850    0.15420    0.07950    1.000
    C26      C        0.94500    0.14400    0.40030    1.000
    C27      C        0.74390    0.10740    0.68690    1.000
    H13      H        0.71340    0.08440    0.62380    1.000
    C28      C        0.00720    0.13760    0.95720    1.000
    C29      C        0.26130    0.18320    0.13800    1.000
    C30      C        0.21580    0.08050    0.22870    1.000
    N9       N        0.26570    0.15410    0.68350    1.000
    N10      N        0.68220    0.14150    0.69280    1.000
    C31      C        0.73250    0.08630    0.14850    1.000
    C32      C        0.21680    0.18590    0.60160    1.000
    H14      H        0.25450    0.21090    0.60620    1.000
    C33      C        0.89650    0.13950    0.86570    1.000
    C34      C        0.05630    0.14840    0.49600    1.000
    C35      C        0.72870    0.17490    0.77950    1.000
    H15      H        0.68770    0.19900    0.78020    1.000
    O12      O        0.16190    0.04928    0.27320    1.000
    C36      C        0.11180    0.18530    0.50730    1.000
    H16      H        0.08040    0.20930    0.45360    1.000
    C37      C        0.84980    0.10460    0.76940    1.000
    H17      H        0.88960    0.08040    0.76210    1.000
    O13      O        0.24080    0.22135    0.12680    1.000
    C38      C        0.83460    0.17550    0.86830    1.000
    H18      H        0.86320    0.19920    0.92780    1.000
    C39      C        0.10660    0.11330    0.58140    1.000
    H19      H        0.07000    0.08800    0.57840    1.000
    O14      O        0.40420    0.06201    0.98540    1.000
    H20      H        0.38500    0.03590    0.02330    1.000
    H21      H        0.33820    0.07190    0.00750    1.000
    N11      N        0.87010    0.17490    0.39140    1.000
    H22      H        0.87990    0.19950    0.43520    1.000
    N12      N        0.90360    0.11010    0.31720    1.000
    C40      C        0.67860    0.18710    0.27540    1.000
    Cl4      Cl       0.95875    0.98745    0.98860    1.000
    O15      O        0.69610    0.22295    0.33430    1.000
    O16      O        0.35290    0.16850    0.19450    1.000
    O17      O        0.58760    0.17335    0.20800    1.000
    O18      O        0.78300    0.05400    0.11240    1.000
    Dy3      Dy       0.97101    0.38504    0.69016    1.000
    O19      O        0.13290    0.40870    0.59880    1.000
    O20      O        0.81600    0.41582    0.77560    1.000
    Cd5      Cd       0.47282    0.44930    0.68975    1.000
    N13      N        0.54900    0.39810    0.53580    1.000
    Cd6      Cd       0.07617    0.23764    0.94249    1.000
    N14      N        0.57680    0.33151    0.48170    1.000
    Cl5      Cl       0.97405    0.26666    0.16360    1.000
    C41      C        0.29670    0.38020    0.75260    1.000
    C42      C        0.65140    0.38820    0.61330    1.000
    C43      C        0.27300    0.34120    0.79650    1.000
    C44      C        0.71200    0.38320    0.17070    1.000
    H23      H        0.74690    0.40670    0.22270    1.000
    C45      C        0.66850    0.34580    0.57950    1.000
    C46      C        0.44500    0.35600    0.90030    1.000
    C47      C        0.24390    0.39260    0.18690    1.000
    H24      H        0.21340    0.41560    0.12380    1.000
    C48      C        0.50720    0.36240    0.45720    1.000
    C49      C        0.76130    0.31680    0.63800    1.000
    C50      C        0.71580    0.41950    0.72870    1.000
    N15      N        0.76570    0.34590    0.18350    1.000
    N16      N        0.18220    0.35850    0.19280    1.000
    C51      C        0.23250    0.41370    0.64850    1.000
    C52      C        0.71680    0.31410    0.10160    1.000
    H25      H        0.75450    0.28910    0.10620    1.000
    C53      C        0.39650    0.36050    0.36570    1.000
    C54      C        0.55630    0.35160    0.99600    1.000
    C55      C        0.22870    0.32510    0.27950    1.000
    H26      H        0.18770    0.30100    0.28020    1.000
    O21      O        0.66190    0.45072    0.77320    1.000
    C56      C        0.61180    0.31470    0.00730    1.000
    H27      H        0.58040    0.29070    0.95360    1.000
    C57      C        0.34980    0.39540    0.26940    1.000
    H28      H        0.38960    0.41960    0.26210    1.000
    O22      O        0.74080    0.27865    0.62680    1.000
    C58      C        0.33460    0.32450    0.36830    1.000
    H29      H        0.36320    0.30080    0.42780    1.000
    C59      C        0.60660    0.38670    0.08140    1.000
    H30      H        0.57000    0.41200    0.07840    1.000
    O23      O        0.90420    0.43799    0.48540    1.000
    H31      H        0.88500    0.46410    0.52330    1.000
    H32      H        0.83820    0.42810    0.50750    1.000
    N17      N        0.37010    0.32510    0.89140    1.000
    H33      H        0.37990    0.30050    0.93520    1.000
    N18      N        0.40360    0.38990    0.81720    1.000
    C60      C        0.17860    0.31290    0.77540    1.000
    Cl6      Cl       0.45875    0.51255    0.48860    1.000
    O24      O        0.19610    0.27705    0.83430    1.000
    O25      O        0.85290    0.33150    0.69450    1.000
    O26      O        0.08760    0.32665    0.70800    1.000
    O27      O        0.28300    0.44600    0.61240    1.000
    Dy4      Dy       0.47101    0.88504    0.69016    1.000
    O28      O        0.63290    0.90870    0.59880    1.000
    O29      O        0.31600    0.91582    0.77560    1.000
    Cd7      Cd       0.97282    0.94930    0.68975    1.000
    N19      N        0.04900    0.89810    0.53580    1.000
    Cd8      Cd       0.57617    0.73763    0.94249    1.000
    N20      N        0.07680    0.83151    0.48170    1.000
    Cl7      Cl       0.47405    0.76666    0.16360    1.000
    C61      C        0.79670    0.88020    0.75260    1.000
    C62      C        0.15140    0.88820    0.61330    1.000
    C63      C        0.77300    0.84120    0.79650    1.000
    C64      C        0.21200    0.88320    0.17070    1.000
    H34      H        0.24690    0.90670    0.22270    1.000
    C65      C        0.16850    0.84580    0.57950    1.000
    C66      C        0.94500    0.85600    0.90030    1.000
    C67      C        0.74390    0.89260    0.18690    1.000
    H35      H        0.71340    0.91560    0.12380    1.000
    C68      C        0.00720    0.86240    0.45720    1.000
    C69      C        0.26130    0.81680    0.63800    1.000
    C70      C        0.21580    0.91950    0.72870    1.000
    N21      N        0.26570    0.84590    0.18350    1.000
    N22      N        0.68220    0.85850    0.19280    1.000
    C71      C        0.73250    0.91370    0.64850    1.000
    C72      C        0.21680    0.81410    0.10160    1.000
    H36      H        0.25450    0.78910    0.10620    1.000
    C73      C        0.89650    0.86050    0.36570    1.000
    C74      C        0.05630    0.85160    0.99600    1.000
    C75      C        0.72870    0.82510    0.27950    1.000
    H37      H        0.68770    0.80100    0.28020    1.000
    O30      O        0.16190    0.95072    0.77320    1.000
    C76      C        0.11180    0.81470    0.00730    1.000
    H38      H        0.08040    0.79070    0.95360    1.000
    C77      C        0.84980    0.89540    0.26940    1.000
    H39      H        0.88960    0.91960    0.26210    1.000
    O31      O        0.24080    0.77865    0.62680    1.000
    C78      C        0.83460    0.82450    0.36830    1.000
    H40      H        0.86320    0.80080    0.42780    1.000
    C79      C        0.10660    0.88670    0.08140    1.000
    H41      H        0.07000    0.91200    0.07840    1.000
    O32      O        0.40420    0.93799    0.48540    1.000
    H42      H        0.38500    0.96410    0.52330    1.000
    H43      H        0.33820    0.92810    0.50750    1.000
    N23      N        0.87010    0.82510    0.89140    1.000
    H44      H        0.87990    0.80050    0.93520    1.000
    N24      N        0.90360    0.88990    0.81720    1.000
    C80      C        0.67860    0.81290    0.77540    1.000
    Cl8      Cl       0.95875    0.01255    0.48860    1.000
    O33      O        0.69610    0.77705    0.83430    1.000
    O34      O        0.35290    0.83150    0.69450    1.000
    O35      O        0.58760    0.82665    0.70800    1.000
    O36      O        0.78300    0.94600    0.61240    1.000
