# CIF file generated by openbabel 3.1.0, see https://openbabel.org
data_I
_chemical_name_common 'image0'
_cell_length_a 21.2245
_cell_length_b 21.2245
_cell_length_c 21.2245
_cell_angle_alpha 90
_cell_angle_beta 90
_cell_angle_gamma 90
_space_group_name_H-M_alt 'P 1'
_space_group_name_Hall 'P 1'
loop_
    _symmetry_equiv_pos_as_xyz
    x,y,z
loop_
    _atom_site_label
    _atom_site_type_symbol
    _atom_site_fract_x
    _atom_site_fract_y
    _atom_site_fract_z
    _atom_site_occupancy
    Bi1      Bi       0.27771    0.42258    0.52774    1.000
    Na1      Na       0.08647    0.44965    0.32479    1.000
    Na2      Na       0.00812    0.54555    0.21420    1.000
    O1       O        0.17680    0.25820    0.36150    1.000
    O2       O        0.42370    0.25800    0.66230    1.000
    O3       O        0.24270    0.39840    0.43250    1.000
    O4       O        0.32660    0.39120    0.61840    1.000
    O5       O        0.21820    0.34010    0.54510    1.000
    O6       O        0.34600    0.35380    0.49760    1.000
    O7       O        0.08560    0.34040    0.54520    1.000
    O8       O        0.47330    0.37720    0.48040    1.000
    O9       O        0.11900    0.35030    0.37530    1.000
    O10      O        0.46490    0.35960    0.65320    1.000
    O11      O        0.02050    0.42750    0.41380    1.000
    H1       H        0.02020    0.44420    0.44450    1.000
    O12      O        0.54820    0.45320    0.61580    1.000
    H2       H        0.53550    0.46910    0.58750    1.000
    C1       C        0.18030    0.32380    0.37140    1.000
    H3       H        0.20130    0.34230    0.33590    1.000
    C2       C        0.40900    0.32300    0.66110    1.000
    H4       H        0.39050    0.33390    0.70090    1.000
    C3       C        0.22140    0.33490    0.42980    1.000
    H5       H        0.25720    0.30730    0.42810    1.000
    C4       C        0.35920    0.33390    0.60920    1.000
    H6       H        0.32930    0.30000    0.61070    1.000
    C5       C        0.18380    0.32080    0.49000    1.000
    H7       H        0.17670    0.27620    0.49240    1.000
    C6       C        0.39010    0.33440    0.54430    1.000
    H8       H        0.40340    0.29220    0.53460    1.000
    C7       C        0.11960    0.35420    0.48910    1.000
    H9       H        0.12640    0.39890    0.48680    1.000
    C8       C        0.44770    0.37720    0.54270    1.000
    H10      H        0.43510    0.41920    0.55350    1.000
    C9       C        0.08350    0.33320    0.43100    1.000
    H11      H        0.07910    0.28820    0.43220    1.000
    C10      C        0.49460    0.35350    0.59160    1.000
    H12      H        0.50390    0.30990    0.58370    1.000
    C11      C        0.01840    0.36240    0.42420    1.000
    H13      H        0.99700    0.34270    0.38960    1.000
    H14      H        0.99460    0.35430    0.46170    1.000
    C12      C        0.55570    0.39030    0.59540    1.000
    H15      H        0.58370    0.36900    0.62380    1.000
    H16      H        0.57510    0.39050    0.55460    1.000
    C13      C        0.14840    0.24230    0.30290    1.000
    H17      H        0.14720    0.19740    0.29840    1.000
    H18      H        0.17250    0.26020    0.26910    1.000
    H19      H        0.10620    0.25870    0.30170    1.000
    C14      C        0.45680    0.24020    0.71760    1.000
    H20      H        0.46560    0.19580    0.71620    1.000
    H21      H        0.43150    0.24940    0.75400    1.000
    H22      H        0.49570    0.26320    0.72000    1.000
    O13      O        0.05910    0.56070    0.31420    1.000
    O14      O        0.99800    0.43570    0.25130    1.000
    O15      O        0.92260    0.60320    0.26900    1.000
    O16      O        0.90640    0.56450    0.26900    1.000
    O17      O        0.16300    0.42500    0.24010    1.000
    O18      O        0.13740    0.39880    0.22890    1.000
    O19      O        0.87250    0.60780    0.29790    1.000
    O20      O        0.84200    0.55930    0.29240    1.000
    Bi2      Bi       0.22229    0.57742    0.02774    1.000
    Na3      Na       0.41353    0.55035    0.82479    1.000
    Na4      Na       0.49188    0.45445    0.71420    1.000
    O21      O        0.32320    0.74180    0.86150    1.000
    O22      O        0.07630    0.74200    0.16230    1.000
    O23      O        0.25730    0.60160    0.93250    1.000
    O24      O        0.17340    0.60880    0.11840    1.000
    O25      O        0.28180    0.65990    0.04510    1.000
    O26      O        0.15400    0.64620    0.99760    1.000
    O27      O        0.41440    0.65960    0.04520    1.000
    O28      O        0.02670    0.62280    0.98040    1.000
    O29      O        0.38100    0.64970    0.87530    1.000
    O30      O        0.03510    0.64040    0.15320    1.000
    O31      O        0.47950    0.57250    0.91380    1.000
    H23      H        0.47980    0.55580    0.94450    1.000
    O32      O        0.95180    0.54680    0.11580    1.000
    H24      H        0.96450    0.53090    0.08750    1.000
    C15      C        0.31970    0.67620    0.87140    1.000
    H25      H        0.29870    0.65770    0.83590    1.000
    C16      C        0.09100    0.67700    0.16110    1.000
    H26      H        0.10950    0.66610    0.20090    1.000
    C17      C        0.27860    0.66510    0.92980    1.000
    H27      H        0.24280    0.69270    0.92810    1.000
    C18      C        0.14080    0.66610    0.10920    1.000
    H28      H        0.17070    0.70000    0.11070    1.000
    C19      C        0.31620    0.67920    0.99000    1.000
    H29      H        0.32330    0.72380    0.99240    1.000
    C20      C        0.10990    0.66560    0.04430    1.000
    H30      H        0.09660    0.70780    0.03460    1.000
    C21      C        0.38040    0.64580    0.98910    1.000
    H31      H        0.37360    0.60110    0.98680    1.000
    C22      C        0.05230    0.62280    0.04270    1.000
    H32      H        0.06490    0.58080    0.05350    1.000
    C23      C        0.41650    0.66680    0.93100    1.000
    H33      H        0.42090    0.71180    0.93220    1.000
    C24      C        0.00540    0.64650    0.09160    1.000
    H34      H        0.99610    0.69010    0.08370    1.000
    C25      C        0.48160    0.63760    0.92420    1.000
    H35      H        0.50300    0.65730    0.88960    1.000
    H36      H        0.50540    0.64570    0.96170    1.000
    C26      C        0.94430    0.60970    0.09540    1.000
    H37      H        0.91630    0.63100    0.12380    1.000
    H38      H        0.92490    0.60950    0.05460    1.000
    C27      C        0.35160    0.75770    0.80290    1.000
    H39      H        0.35280    0.80260    0.79840    1.000
    H40      H        0.32750    0.73980    0.76910    1.000
    H41      H        0.39380    0.74130    0.80170    1.000
    C28      C        0.04320    0.75980    0.21760    1.000
    H42      H        0.03440    0.80420    0.21620    1.000
    H43      H        0.06850    0.75060    0.25400    1.000
    H44      H        0.00430    0.73680    0.22000    1.000
    O33      O        0.44090    0.43930    0.81420    1.000
    O34      O        0.50200    0.56430    0.75130    1.000
    O35      O        0.57740    0.39680    0.76900    1.000
    O36      O        0.59360    0.43550    0.76900    1.000
    O37      O        0.33700    0.57500    0.74010    1.000
    O38      O        0.36260    0.60120    0.72890    1.000
    O39      O        0.62750    0.39220    0.79790    1.000
    O40      O        0.65800    0.44070    0.79240    1.000
    Bi3      Bi       0.72229    0.92258    0.97226    1.000
    Na5      Na       0.91353    0.94965    0.17521    1.000
    Na6      Na       0.99188    0.04555    0.28580    1.000
    O41      O        0.82320    0.75820    0.13850    1.000
    O42      O        0.57630    0.75800    0.83770    1.000
    O43      O        0.75730    0.89840    0.06750    1.000
    O44      O        0.67340    0.89120    0.88160    1.000
    O45      O        0.78180    0.84010    0.95490    1.000
    O46      O        0.65400    0.85380    0.00240    1.000
    O47      O        0.91440    0.84040    0.95480    1.000
    O48      O        0.52670    0.87720    0.01960    1.000
    O49      O        0.88100    0.85030    0.12470    1.000
    O50      O        0.53510    0.85960    0.84680    1.000
    O51      O        0.97950    0.92750    0.08620    1.000
    H45      H        0.97980    0.94420    0.05550    1.000
    O52      O        0.45180    0.95320    0.88420    1.000
    H46      H        0.46450    0.96910    0.91250    1.000
    C29      C        0.81970    0.82380    0.12860    1.000
    H47      H        0.79870    0.84230    0.16410    1.000
    C30      C        0.59100    0.82300    0.83890    1.000
    H48      H        0.60950    0.83390    0.79910    1.000
    C31      C        0.77860    0.83490    0.07020    1.000
    H49      H        0.74280    0.80730    0.07190    1.000
    C32      C        0.64080    0.83390    0.89080    1.000
    H50      H        0.67070    0.80000    0.88930    1.000
    C33      C        0.81620    0.82080    0.01000    1.000
    H51      H        0.82330    0.77620    0.00760    1.000
    C34      C        0.60990    0.83440    0.95570    1.000
    H52      H        0.59660    0.79220    0.96540    1.000
    C35      C        0.88040    0.85420    0.01090    1.000
    H53      H        0.87360    0.89890    0.01320    1.000
    C36      C        0.55230    0.87720    0.95730    1.000
    H54      H        0.56490    0.91920    0.94650    1.000
    C37      C        0.91650    0.83320    0.06900    1.000
    H55      H        0.92090    0.78820    0.06780    1.000
    C38      C        0.50540    0.85350    0.90840    1.000
    H56      H        0.49610    0.80990    0.91630    1.000
    C39      C        0.98160    0.86240    0.07580    1.000
    H57      H        0.00300    0.84270    0.11040    1.000
    H58      H        0.00540    0.85430    0.03830    1.000
    C40      C        0.44430    0.89030    0.90460    1.000
    H59      H        0.41630    0.86900    0.87620    1.000
    H60      H        0.42490    0.89050    0.94540    1.000
    C41      C        0.85160    0.74230    0.19710    1.000
    H61      H        0.85280    0.69740    0.20160    1.000
    H62      H        0.82750    0.76020    0.23090    1.000
    H63      H        0.89380    0.75870    0.19830    1.000
    C42      C        0.54320    0.74020    0.78240    1.000
    H64      H        0.53440    0.69580    0.78380    1.000
    H65      H        0.56850    0.74940    0.74600    1.000
    H66      H        0.50430    0.76320    0.78000    1.000
    O53      O        0.94090    0.06070    0.18580    1.000
    O54      O        0.00200    0.93570    0.24870    1.000
    O55      O        0.07740    0.10320    0.23100    1.000
    O56      O        0.09360    0.06450    0.23100    1.000
    O57      O        0.83700    0.92500    0.25990    1.000
    O58      O        0.86260    0.89880    0.27110    1.000
    O59      O        0.12750    0.10780    0.20210    1.000
    O60      O        0.15800    0.05930    0.20760    1.000
    Bi4      Bi       0.77771    0.07742    0.47226    1.000
    Na7      Na       0.58647    0.05035    0.67521    1.000
    Na8      Na       0.50812    0.95445    0.78580    1.000
    O61      O        0.67680    0.24180    0.63850    1.000
    O62      O        0.92370    0.24200    0.33770    1.000
    O63      O        0.74270    0.10160    0.56750    1.000
    O64      O        0.82660    0.10880    0.38160    1.000
    O65      O        0.71820    0.15990    0.45490    1.000
    O66      O        0.84600    0.14620    0.50240    1.000
    O67      O        0.58560    0.15960    0.45480    1.000
    O68      O        0.97330    0.12280    0.51960    1.000
    O69      O        0.61900    0.14970    0.62470    1.000
    O70      O        0.96490    0.14040    0.34680    1.000
    O71      O        0.52050    0.07250    0.58620    1.000
    H67      H        0.52020    0.05580    0.55550    1.000
    O72      O        0.04820    0.04680    0.38420    1.000
    H68      H        0.03550    0.03090    0.41250    1.000
    C43      C        0.68030    0.17620    0.62860    1.000
    H69      H        0.70130    0.15770    0.66410    1.000
    C44      C        0.90900    0.17700    0.33890    1.000
    H70      H        0.89050    0.16610    0.29910    1.000
    C45      C        0.72140    0.16510    0.57020    1.000
    H71      H        0.75720    0.19270    0.57190    1.000
    C46      C        0.85920    0.16610    0.39080    1.000
    H72      H        0.82930    0.20000    0.38930    1.000
    C47      C        0.68380    0.17920    0.51000    1.000
    H73      H        0.67670    0.22380    0.50760    1.000
    C48      C        0.89010    0.16560    0.45570    1.000
    H74      H        0.90340    0.20780    0.46540    1.000
    C49      C        0.61960    0.14580    0.51090    1.000
    H75      H        0.62640    0.10110    0.51320    1.000
    C50      C        0.94770    0.12280    0.45730    1.000
    H76      H        0.93510    0.08080    0.44650    1.000
    C51      C        0.58350    0.16680    0.56900    1.000
    H77      H        0.57910    0.21180    0.56780    1.000
    C52      C        0.99460    0.14650    0.40840    1.000
    H78      H        0.00390    0.19010    0.41630    1.000
    C53      C        0.51840    0.13760    0.57580    1.000
    H79      H        0.49700    0.15730    0.61040    1.000
    H80      H        0.49460    0.14570    0.53830    1.000
    C54      C        0.05570    0.10970    0.40460    1.000
    H81      H        0.08370    0.13100    0.37620    1.000
    H82      H        0.07510    0.10950    0.44540    1.000
    C55      C        0.64840    0.25770    0.69710    1.000
    H83      H        0.64720    0.30260    0.70160    1.000
    H84      H        0.67250    0.23980    0.73090    1.000
    H85      H        0.60620    0.24130    0.69830    1.000
    C56      C        0.95680    0.25980    0.28240    1.000
    H86      H        0.96560    0.30420    0.28380    1.000
    H87      H        0.93150    0.25060    0.24600    1.000
    H88      H        0.99570    0.23680    0.28000    1.000
    O73      O        0.55910    0.93930    0.68580    1.000
    O74      O        0.49800    0.06430    0.74870    1.000
    O75      O        0.42260    0.89680    0.73100    1.000
    O76      O        0.40640    0.93550    0.73100    1.000
    O77      O        0.66300    0.07500    0.75990    1.000
    O78      O        0.63740    0.10120    0.77110    1.000
    O79      O        0.37250    0.89220    0.70210    1.000
    O80      O        0.34200    0.94070    0.70760    1.000
    Bi5      Bi       0.52774    0.27771    0.42258    1.000
    Na9      Na       0.32479    0.08647    0.44965    1.000
    Na10     Na       0.21420    0.00812    0.54555    1.000
    O81      O        0.36150    0.17680    0.25820    1.000
    O82      O        0.66230    0.42370    0.25800    1.000
    O83      O        0.43250    0.24270    0.39840    1.000
    O84      O        0.61840    0.32660    0.39120    1.000
    O85      O        0.54510    0.21820    0.34010    1.000
    O86      O        0.49760    0.34600    0.35380    1.000
    O87      O        0.54520    0.08560    0.34040    1.000
    O88      O        0.48040    0.47330    0.37720    1.000
    O89      O        0.37530    0.11900    0.35030    1.000
    O90      O        0.65320    0.46490    0.35960    1.000
    O91      O        0.41380    0.02050    0.42750    1.000
    H89      H        0.44450    0.02020    0.44420    1.000
    O92      O        0.61580    0.54820    0.45320    1.000
    H90      H        0.58750    0.53550    0.46910    1.000
    C57      C        0.37140    0.18030    0.32380    1.000
    H91      H        0.33590    0.20130    0.34230    1.000
    C58      C        0.66110    0.40900    0.32300    1.000
    H92      H        0.70090    0.39050    0.33390    1.000
    C59      C        0.42980    0.22140    0.33490    1.000
    H93      H        0.42810    0.25720    0.30730    1.000
    C60      C        0.60920    0.35920    0.33390    1.000
    H94      H        0.61070    0.32930    0.30000    1.000
    C61      C        0.49000    0.18380    0.32080    1.000
    H95      H        0.49240    0.17670    0.27620    1.000
    C62      C        0.54430    0.39010    0.33440    1.000
    H96      H        0.53460    0.40340    0.29220    1.000
    C63      C        0.48910    0.11960    0.35420    1.000
    H97      H        0.48680    0.12640    0.39890    1.000
    C64      C        0.54270    0.44770    0.37720    1.000
    H98      H        0.55350    0.43510    0.41920    1.000
    C65      C        0.43100    0.08350    0.33320    1.000
    H99      H        0.43220    0.07910    0.28820    1.000
    C66      C        0.59160    0.49460    0.35350    1.000
    H100     H        0.58370    0.50390    0.30990    1.000
    C67      C        0.42420    0.01840    0.36240    1.000
    H101     H        0.38960    0.99700    0.34270    1.000
    H102     H        0.46170    0.99460    0.35430    1.000
    C68      C        0.59540    0.55570    0.39030    1.000
    H103     H        0.62380    0.58370    0.36900    1.000
    H104     H        0.55460    0.57510    0.39050    1.000
    C69      C        0.30290    0.14840    0.24230    1.000
    H105     H        0.29840    0.14720    0.19740    1.000
    H106     H        0.26910    0.17250    0.26020    1.000
    H107     H        0.30170    0.10620    0.25870    1.000
    C70      C        0.71760    0.45680    0.24020    1.000
    H108     H        0.71620    0.46560    0.19580    1.000
    H109     H        0.75400    0.43150    0.24940    1.000
    H110     H        0.72000    0.49570    0.26320    1.000
    O93      O        0.31420    0.05910    0.56070    1.000
    O94      O        0.25130    0.99800    0.43570    1.000
    O95      O        0.26900    0.92260    0.60320    1.000
    O96      O        0.26900    0.90640    0.56450    1.000
    O97      O        0.24010    0.16300    0.42500    1.000
    O98      O        0.22890    0.13740    0.39880    1.000
    O99      O        0.29790    0.87250    0.60780    1.000
    O100     O        0.29240    0.84200    0.55930    1.000
    Bi6      Bi       0.02774    0.22229    0.57742    1.000
    Na11     Na       0.82479    0.41353    0.55035    1.000
    Na12     Na       0.71420    0.49188    0.45445    1.000
    O101     O        0.86150    0.32320    0.74180    1.000
    O102     O        0.16230    0.07630    0.74200    1.000
    O103     O        0.93250    0.25730    0.60160    1.000
    O104     O        0.11840    0.17340    0.60880    1.000
    O105     O        0.04510    0.28180    0.65990    1.000
    O106     O        0.99760    0.15400    0.64620    1.000
    O107     O        0.04520    0.41440    0.65960    1.000
    O108     O        0.98040    0.02670    0.62280    1.000
    O109     O        0.87530    0.38100    0.64970    1.000
    O110     O        0.15320    0.03510    0.64040    1.000
    O111     O        0.91380    0.47950    0.57250    1.000
    H111     H        0.94450    0.47980    0.55580    1.000
    O112     O        0.11580    0.95180    0.54680    1.000
    H112     H        0.08750    0.96450    0.53090    1.000
    C71      C        0.87140    0.31970    0.67620    1.000
    H113     H        0.83590    0.29870    0.65770    1.000
    C72      C        0.16110    0.09100    0.67700    1.000
    H114     H        0.20090    0.10950    0.66610    1.000
    C73      C        0.92980    0.27860    0.66510    1.000
    H115     H        0.92810    0.24280    0.69270    1.000
    C74      C        0.10920    0.14080    0.66610    1.000
    H116     H        0.11070    0.17070    0.70000    1.000
    C75      C        0.99000    0.31620    0.67920    1.000
    H117     H        0.99240    0.32330    0.72380    1.000
    C76      C        0.04430    0.10990    0.66560    1.000
    H118     H        0.03460    0.09660    0.70780    1.000
    C77      C        0.98910    0.38040    0.64580    1.000
    H119     H        0.98680    0.37360    0.60110    1.000
    C78      C        0.04270    0.05230    0.62280    1.000
    H120     H        0.05350    0.06490    0.58080    1.000
    C79      C        0.93100    0.41650    0.66680    1.000
    H121     H        0.93220    0.42090    0.71180    1.000
    C80      C        0.09160    0.00540    0.64650    1.000
    H122     H        0.08370    0.99610    0.69010    1.000
    C81      C        0.92420    0.48160    0.63760    1.000
    H123     H        0.88960    0.50300    0.65730    1.000
    H124     H        0.96170    0.50540    0.64570    1.000
    C82      C        0.09540    0.94430    0.60970    1.000
    H125     H        0.12380    0.91630    0.63100    1.000
    H126     H        0.05460    0.92490    0.60950    1.000
    C83      C        0.80290    0.35160    0.75770    1.000
    H127     H        0.79840    0.35280    0.80260    1.000
    H128     H        0.76910    0.32750    0.73980    1.000
    H129     H        0.80170    0.39380    0.74130    1.000
    C84      C        0.21760    0.04320    0.75980    1.000
    H130     H        0.21620    0.03440    0.80420    1.000
    H131     H        0.25400    0.06850    0.75060    1.000
    H132     H        0.22000    0.00430    0.73680    1.000
    O113     O        0.81420    0.44090    0.43930    1.000
    O114     O        0.75130    0.50200    0.56430    1.000
    O115     O        0.76900    0.57740    0.39680    1.000
    O116     O        0.76900    0.59360    0.43550    1.000
    O117     O        0.74010    0.33700    0.57500    1.000
    O118     O        0.72890    0.36260    0.60120    1.000
    O119     O        0.79790    0.62750    0.39220    1.000
    O120     O        0.79240    0.65800    0.44070    1.000
    Bi7      Bi       0.97226    0.72229    0.92258    1.000
    Na13     Na       0.17521    0.91353    0.94965    1.000
    Na14     Na       0.28580    0.99188    0.04555    1.000
    O121     O        0.13850    0.82320    0.75820    1.000
    O122     O        0.83770    0.57630    0.75800    1.000
    O123     O        0.06750    0.75730    0.89840    1.000
    O124     O        0.88160    0.67340    0.89120    1.000
    O125     O        0.95490    0.78180    0.84010    1.000
    O126     O        0.00240    0.65400    0.85380    1.000
    O127     O        0.95480    0.91440    0.84040    1.000
    O128     O        0.01960    0.52670    0.87720    1.000
    O129     O        0.12470    0.88100    0.85030    1.000
    O130     O        0.84680    0.53510    0.85960    1.000
    O131     O        0.08620    0.97950    0.92750    1.000
    H133     H        0.05550    0.97980    0.94420    1.000
    O132     O        0.88420    0.45180    0.95320    1.000
    H134     H        0.91250    0.46450    0.96910    1.000
    C85      C        0.12860    0.81970    0.82380    1.000
    H135     H        0.16410    0.79870    0.84230    1.000
    C86      C        0.83890    0.59100    0.82300    1.000
    H136     H        0.79910    0.60950    0.83390    1.000
    C87      C        0.07020    0.77860    0.83490    1.000
    H137     H        0.07190    0.74280    0.80730    1.000
    C88      C        0.89080    0.64080    0.83390    1.000
    H138     H        0.88930    0.67070    0.80000    1.000
    C89      C        0.01000    0.81620    0.82080    1.000
    H139     H        0.00760    0.82330    0.77620    1.000
    C90      C        0.95570    0.60990    0.83440    1.000
    H140     H        0.96540    0.59660    0.79220    1.000
    C91      C        0.01090    0.88040    0.85420    1.000
    H141     H        0.01320    0.87360    0.89890    1.000
    C92      C        0.95730    0.55230    0.87720    1.000
    H142     H        0.94650    0.56490    0.91920    1.000
    C93      C        0.06900    0.91650    0.83320    1.000
    H143     H        0.06780    0.92090    0.78820    1.000
    C94      C        0.90840    0.50540    0.85350    1.000
    H144     H        0.91630    0.49610    0.80990    1.000
    C95      C        0.07580    0.98160    0.86240    1.000
    H145     H        0.11040    0.00300    0.84270    1.000
    H146     H        0.03830    0.00540    0.85430    1.000
    C96      C        0.90460    0.44430    0.89030    1.000
    H147     H        0.87620    0.41630    0.86900    1.000
    H148     H        0.94540    0.42490    0.89050    1.000
    C97      C        0.19710    0.85160    0.74230    1.000
    H149     H        0.20160    0.85280    0.69740    1.000
    H150     H        0.23090    0.82750    0.76020    1.000
    H151     H        0.19830    0.89380    0.75870    1.000
    C98      C        0.78240    0.54320    0.74020    1.000
    H152     H        0.78380    0.53440    0.69580    1.000
    H153     H        0.74600    0.56850    0.74940    1.000
    H154     H        0.78000    0.50430    0.76320    1.000
    O133     O        0.18580    0.94090    0.06070    1.000
    O134     O        0.24870    0.00200    0.93570    1.000
    O135     O        0.23100    0.07740    0.10320    1.000
    O136     O        0.23100    0.09360    0.06450    1.000
    O137     O        0.25990    0.83700    0.92500    1.000
    O138     O        0.27110    0.86260    0.89880    1.000
    O139     O        0.20210    0.12750    0.10780    1.000
    O140     O        0.20760    0.15800    0.05930    1.000
    Bi8      Bi       0.47226    0.77771    0.07742    1.000
    Na15     Na       0.67521    0.58647    0.05035    1.000
    Na16     Na       0.78580    0.50812    0.95445    1.000
    O141     O        0.63850    0.67680    0.24180    1.000
    O142     O        0.33770    0.92370    0.24200    1.000
    O143     O        0.56750    0.74270    0.10160    1.000
    O144     O        0.38160    0.82660    0.10880    1.000
    O145     O        0.45490    0.71820    0.15990    1.000
    O146     O        0.50240    0.84600    0.14620    1.000
    O147     O        0.45480    0.58560    0.15960    1.000
    O148     O        0.51960    0.97330    0.12280    1.000
    O149     O        0.62470    0.61900    0.14970    1.000
    O150     O        0.34680    0.96490    0.14040    1.000
    O151     O        0.58620    0.52050    0.07250    1.000
    H155     H        0.55550    0.52020    0.05580    1.000
    O152     O        0.38420    0.04820    0.04680    1.000
    H156     H        0.41250    0.03550    0.03090    1.000
    C99      C        0.62860    0.68030    0.17620    1.000
    H157     H        0.66410    0.70130    0.15770    1.000
    C100     C        0.33890    0.90900    0.17700    1.000
    H158     H        0.29910    0.89050    0.16610    1.000
    C101     C        0.57020    0.72140    0.16510    1.000
    H159     H        0.57190    0.75720    0.19270    1.000
    C102     C        0.39080    0.85920    0.16610    1.000
    H160     H        0.38930    0.82930    0.20000    1.000
    C103     C        0.51000    0.68380    0.17920    1.000
    H161     H        0.50760    0.67670    0.22380    1.000
    C104     C        0.45570    0.89010    0.16560    1.000
    H162     H        0.46540    0.90340    0.20780    1.000
    C105     C        0.51090    0.61960    0.14580    1.000
    H163     H        0.51320    0.62640    0.10110    1.000
    C106     C        0.45730    0.94770    0.12280    1.000
    H164     H        0.44650    0.93510    0.08080    1.000
    C107     C        0.56900    0.58350    0.16680    1.000
    H165     H        0.56780    0.57910    0.21180    1.000
    C108     C        0.40840    0.99460    0.14650    1.000
    H166     H        0.41630    0.00390    0.19010    1.000
    C109     C        0.57580    0.51840    0.13760    1.000
    H167     H        0.61040    0.49700    0.15730    1.000
    H168     H        0.53830    0.49460    0.14570    1.000
    C110     C        0.40460    0.05570    0.10970    1.000
    H169     H        0.37620    0.08370    0.13100    1.000
    H170     H        0.44540    0.07510    0.10950    1.000
    C111     C        0.69710    0.64840    0.25770    1.000
    H171     H        0.70160    0.64720    0.30260    1.000
    H172     H        0.73090    0.67250    0.23980    1.000
    H173     H        0.69830    0.60620    0.24130    1.000
    C112     C        0.28240    0.95680    0.25980    1.000
    H174     H        0.28380    0.96560    0.30420    1.000
    H175     H        0.24600    0.93150    0.25060    1.000
    H176     H        0.28000    0.99570    0.23680    1.000
    O153     O        0.68580    0.55910    0.93930    1.000
    O154     O        0.74870    0.49800    0.06430    1.000
    O155     O        0.73100    0.42260    0.89680    1.000
    O156     O        0.73100    0.40640    0.93550    1.000
    O157     O        0.75990    0.66300    0.07500    1.000
    O158     O        0.77110    0.63740    0.10120    1.000
    O159     O        0.70210    0.37250    0.89220    1.000
    O160     O        0.70760    0.34200    0.94070    1.000
    Bi9      Bi       0.42258    0.52774    0.27771    1.000
    Na17     Na       0.44965    0.32479    0.08647    1.000
    Na18     Na       0.54555    0.21420    0.00812    1.000
    O161     O        0.25820    0.36150    0.17680    1.000
    O162     O        0.25800    0.66230    0.42370    1.000
    O163     O        0.39840    0.43250    0.24270    1.000
    O164     O        0.39120    0.61840    0.32660    1.000
    O165     O        0.34010    0.54510    0.21820    1.000
    O166     O        0.35380    0.49760    0.34600    1.000
    O167     O        0.34040    0.54520    0.08560    1.000
    O168     O        0.37720    0.48040    0.47330    1.000
    O169     O        0.35030    0.37530    0.11900    1.000
    O170     O        0.35960    0.65320    0.46490    1.000
    O171     O        0.42750    0.41380    0.02050    1.000
    H177     H        0.44420    0.44450    0.02020    1.000
    O172     O        0.45320    0.61580    0.54820    1.000
    H178     H        0.46910    0.58750    0.53550    1.000
    C113     C        0.32380    0.37140    0.18030    1.000
    H179     H        0.34230    0.33590    0.20130    1.000
    C114     C        0.32300    0.66110    0.40900    1.000
    H180     H        0.33390    0.70090    0.39050    1.000
    C115     C        0.33490    0.42980    0.22140    1.000
    H181     H        0.30730    0.42810    0.25720    1.000
    C116     C        0.33390    0.60920    0.35920    1.000
    H182     H        0.30000    0.61070    0.32930    1.000
    C117     C        0.32080    0.49000    0.18380    1.000
    H183     H        0.27620    0.49240    0.17670    1.000
    C118     C        0.33440    0.54430    0.39010    1.000
    H184     H        0.29220    0.53460    0.40340    1.000
    C119     C        0.35420    0.48910    0.11960    1.000
    H185     H        0.39890    0.48680    0.12640    1.000
    C120     C        0.37720    0.54270    0.44770    1.000
    H186     H        0.41920    0.55350    0.43510    1.000
    C121     C        0.33320    0.43100    0.08350    1.000
    H187     H        0.28820    0.43220    0.07910    1.000
    C122     C        0.35350    0.59160    0.49460    1.000
    H188     H        0.30990    0.58370    0.50390    1.000
    C123     C        0.36240    0.42420    0.01840    1.000
    H189     H        0.34270    0.38960    0.99700    1.000
    H190     H        0.35430    0.46170    0.99460    1.000
    C124     C        0.39030    0.59540    0.55570    1.000
    H191     H        0.36900    0.62380    0.58370    1.000
    H192     H        0.39050    0.55460    0.57510    1.000
    C125     C        0.24230    0.30290    0.14840    1.000
    H193     H        0.19740    0.29840    0.14720    1.000
    H194     H        0.26020    0.26910    0.17250    1.000
    H195     H        0.25870    0.30170    0.10620    1.000
    C126     C        0.24020    0.71760    0.45680    1.000
    H196     H        0.19580    0.71620    0.46560    1.000
    H197     H        0.24940    0.75400    0.43150    1.000
    H198     H        0.26320    0.72000    0.49570    1.000
    O173     O        0.56070    0.31420    0.05910    1.000
    O174     O        0.43570    0.25130    0.99800    1.000
    O175     O        0.60320    0.26900    0.92260    1.000
    O176     O        0.56450    0.26900    0.90640    1.000
    O177     O        0.42500    0.24010    0.16300    1.000
    O178     O        0.39880    0.22890    0.13740    1.000
    O179     O        0.60780    0.29790    0.87250    1.000
    O180     O        0.55930    0.29240    0.84200    1.000
    Bi10     Bi       0.57742    0.02774    0.22229    1.000
    Na19     Na       0.55035    0.82479    0.41353    1.000
    Na20     Na       0.45445    0.71420    0.49188    1.000
    O181     O        0.74180    0.86150    0.32320    1.000
    O182     O        0.74200    0.16230    0.07630    1.000
    O183     O        0.60160    0.93250    0.25730    1.000
    O184     O        0.60880    0.11840    0.17340    1.000
    O185     O        0.65990    0.04510    0.28180    1.000
    O186     O        0.64620    0.99760    0.15400    1.000
    O187     O        0.65960    0.04520    0.41440    1.000
    O188     O        0.62280    0.98040    0.02670    1.000
    O189     O        0.64970    0.87530    0.38100    1.000
    O190     O        0.64040    0.15320    0.03510    1.000
    O191     O        0.57250    0.91380    0.47950    1.000
    H199     H        0.55580    0.94450    0.47980    1.000
    O192     O        0.54680    0.11580    0.95180    1.000
    H200     H        0.53090    0.08750    0.96450    1.000
    C127     C        0.67620    0.87140    0.31970    1.000
    H201     H        0.65770    0.83590    0.29870    1.000
    C128     C        0.67700    0.16110    0.09100    1.000
    H202     H        0.66610    0.20090    0.10950    1.000
    C129     C        0.66510    0.92980    0.27860    1.000
    H203     H        0.69270    0.92810    0.24280    1.000
    C130     C        0.66610    0.10920    0.14080    1.000
    H204     H        0.70000    0.11070    0.17070    1.000
    C131     C        0.67920    0.99000    0.31620    1.000
    H205     H        0.72380    0.99240    0.32330    1.000
    C132     C        0.66560    0.04430    0.10990    1.000
    H206     H        0.70780    0.03460    0.09660    1.000
    C133     C        0.64580    0.98910    0.38040    1.000
    H207     H        0.60110    0.98680    0.37360    1.000
    C134     C        0.62280    0.04270    0.05230    1.000
    H208     H        0.58080    0.05350    0.06490    1.000
    C135     C        0.66680    0.93100    0.41650    1.000
    H209     H        0.71180    0.93220    0.42090    1.000
    C136     C        0.64650    0.09160    0.00540    1.000
    H210     H        0.69010    0.08370    0.99610    1.000
    C137     C        0.63760    0.92420    0.48160    1.000
    H211     H        0.65730    0.88960    0.50300    1.000
    H212     H        0.64570    0.96170    0.50540    1.000
    C138     C        0.60970    0.09540    0.94430    1.000
    H213     H        0.63100    0.12380    0.91630    1.000
    H214     H        0.60950    0.05460    0.92490    1.000
    C139     C        0.75770    0.80290    0.35160    1.000
    H215     H        0.80260    0.79840    0.35280    1.000
    H216     H        0.73980    0.76910    0.32750    1.000
    H217     H        0.74130    0.80170    0.39380    1.000
    C140     C        0.75980    0.21760    0.04320    1.000
    H218     H        0.80420    0.21620    0.03440    1.000
    H219     H        0.75060    0.25400    0.06850    1.000
    H220     H        0.73680    0.22000    0.00430    1.000
    O193     O        0.43930    0.81420    0.44090    1.000
    O194     O        0.56430    0.75130    0.50200    1.000
    O195     O        0.39680    0.76900    0.57740    1.000
    O196     O        0.43550    0.76900    0.59360    1.000
    O197     O        0.57500    0.74010    0.33700    1.000
    O198     O        0.60120    0.72890    0.36260    1.000
    O199     O        0.39220    0.79790    0.62750    1.000
    O200     O        0.44070    0.79240    0.65800    1.000
    Bi11     Bi       0.92258    0.97226    0.72229    1.000
    Na21     Na       0.94965    0.17521    0.91353    1.000
    Na22     Na       0.04555    0.28580    0.99188    1.000
    O201     O        0.75820    0.13850    0.82320    1.000
    O202     O        0.75800    0.83770    0.57630    1.000
    O203     O        0.89840    0.06750    0.75730    1.000
    O204     O        0.89120    0.88160    0.67340    1.000
    O205     O        0.84010    0.95490    0.78180    1.000
    O206     O        0.85380    0.00240    0.65400    1.000
    O207     O        0.84040    0.95480    0.91440    1.000
    O208     O        0.87720    0.01960    0.52670    1.000
    O209     O        0.85030    0.12470    0.88100    1.000
    O210     O        0.85960    0.84680    0.53510    1.000
    O211     O        0.92750    0.08620    0.97950    1.000
    H221     H        0.94420    0.05550    0.97980    1.000
    O212     O        0.95320    0.88420    0.45180    1.000
    H222     H        0.96910    0.91250    0.46450    1.000
    C141     C        0.82380    0.12860    0.81970    1.000
    H223     H        0.84230    0.16410    0.79870    1.000
    C142     C        0.82300    0.83890    0.59100    1.000
    H224     H        0.83390    0.79910    0.60950    1.000
    C143     C        0.83490    0.07020    0.77860    1.000
    H225     H        0.80730    0.07190    0.74280    1.000
    C144     C        0.83390    0.89080    0.64080    1.000
    H226     H        0.80000    0.88930    0.67070    1.000
    C145     C        0.82080    0.01000    0.81620    1.000
    H227     H        0.77620    0.00760    0.82330    1.000
    C146     C        0.83440    0.95570    0.60990    1.000
    H228     H        0.79220    0.96540    0.59660    1.000
    C147     C        0.85420    0.01090    0.88040    1.000
    H229     H        0.89890    0.01320    0.87360    1.000
    C148     C        0.87720    0.95730    0.55230    1.000
    H230     H        0.91920    0.94650    0.56490    1.000
    C149     C        0.83320    0.06900    0.91650    1.000
    H231     H        0.78820    0.06780    0.92090    1.000
    C150     C        0.85350    0.90840    0.50540    1.000
    H232     H        0.80990    0.91630    0.49610    1.000
    C151     C        0.86240    0.07580    0.98160    1.000
    H233     H        0.84270    0.11040    0.00300    1.000
    H234     H        0.85430    0.03830    0.00540    1.000
    C152     C        0.89030    0.90460    0.44430    1.000
    H235     H        0.86900    0.87620    0.41630    1.000
    H236     H        0.89050    0.94540    0.42490    1.000
    C153     C        0.74230    0.19710    0.85160    1.000
    H237     H        0.69740    0.20160    0.85280    1.000
    H238     H        0.76020    0.23090    0.82750    1.000
    H239     H        0.75870    0.19830    0.89380    1.000
    C154     C        0.74020    0.78240    0.54320    1.000
    H240     H        0.69580    0.78380    0.53440    1.000
    H241     H        0.74940    0.74600    0.56850    1.000
    H242     H        0.76320    0.78000    0.50430    1.000
    O213     O        0.06070    0.18580    0.94090    1.000
    O214     O        0.93570    0.24870    0.00200    1.000
    O215     O        0.10320    0.23100    0.07740    1.000
    O216     O        0.06450    0.23100    0.09360    1.000
    O217     O        0.92500    0.25990    0.83700    1.000
    O218     O        0.89880    0.27110    0.86260    1.000
    O219     O        0.10780    0.20210    0.12750    1.000
    O220     O        0.05930    0.20760    0.15800    1.000
    Bi12     Bi       0.07742    0.47226    0.77771    1.000
    Na23     Na       0.05035    0.67521    0.58647    1.000
    Na24     Na       0.95445    0.78580    0.50812    1.000
    O221     O        0.24180    0.63850    0.67680    1.000
    O222     O        0.24200    0.33770    0.92370    1.000
    O223     O        0.10160    0.56750    0.74270    1.000
    O224     O        0.10880    0.38160    0.82660    1.000
    O225     O        0.15990    0.45490    0.71820    1.000
    O226     O        0.14620    0.50240    0.84600    1.000
    O227     O        0.15960    0.45480    0.58560    1.000
    O228     O        0.12280    0.51960    0.97330    1.000
    O229     O        0.14970    0.62470    0.61900    1.000
    O230     O        0.14040    0.34680    0.96490    1.000
    O231     O        0.07250    0.58620    0.52050    1.000
    H243     H        0.05580    0.55550    0.52020    1.000
    O232     O        0.04680    0.38420    0.04820    1.000
    H244     H        0.03090    0.41250    0.03550    1.000
    C155     C        0.17620    0.62860    0.68030    1.000
    H245     H        0.15770    0.66410    0.70130    1.000
    C156     C        0.17700    0.33890    0.90900    1.000
    H246     H        0.16610    0.29910    0.89050    1.000
    C157     C        0.16510    0.57020    0.72140    1.000
    H247     H        0.19270    0.57190    0.75720    1.000
    C158     C        0.16610    0.39080    0.85920    1.000
    H248     H        0.20000    0.38930    0.82930    1.000
    C159     C        0.17920    0.51000    0.68380    1.000
    H249     H        0.22380    0.50760    0.67670    1.000
    C160     C        0.16560    0.45570    0.89010    1.000
    H250     H        0.20780    0.46540    0.90340    1.000
    C161     C        0.14580    0.51090    0.61960    1.000
    H251     H        0.10110    0.51320    0.62640    1.000
    C162     C        0.12280    0.45730    0.94770    1.000
    H252     H        0.08080    0.44650    0.93510    1.000
    C163     C        0.16680    0.56900    0.58350    1.000
    H253     H        0.21180    0.56780    0.57910    1.000
    C164     C        0.14650    0.40840    0.99460    1.000
    H254     H        0.19010    0.41630    0.00390    1.000
    C165     C        0.13760    0.57580    0.51840    1.000
    H255     H        0.15730    0.61040    0.49700    1.000
    H256     H        0.14570    0.53830    0.49460    1.000
    C166     C        0.10970    0.40460    0.05570    1.000
    H257     H        0.13100    0.37620    0.08370    1.000
    H258     H        0.10950    0.44540    0.07510    1.000
    C167     C        0.25770    0.69710    0.64840    1.000
    H259     H        0.30260    0.70160    0.64720    1.000
    H260     H        0.23980    0.73090    0.67250    1.000
    H261     H        0.24130    0.69830    0.60620    1.000
    C168     C        0.25980    0.28240    0.95680    1.000
    H262     H        0.30420    0.28380    0.96560    1.000
    H263     H        0.25060    0.24600    0.93150    1.000
    H264     H        0.23680    0.28000    0.99570    1.000
    O233     O        0.93930    0.68580    0.55910    1.000
    O234     O        0.06430    0.74870    0.49800    1.000
    O235     O        0.89680    0.73100    0.42260    1.000
    O236     O        0.93550    0.73100    0.40640    1.000
    O237     O        0.07500    0.75990    0.66300    1.000
    O238     O        0.10120    0.77110    0.63740    1.000
    O239     O        0.89220    0.70210    0.37250    1.000
    O240     O        0.94070    0.70760    0.34200    1.000
    Bi13     Bi       0.13182    0.36818    0.63182    1.000
    Bi14     Bi       0.36818    0.63182    0.13182    1.000
    Bi15     Bi       0.86819    0.86819    0.86818    1.000
    Bi16     Bi       0.63182    0.13182    0.36818    1.000
    Bi17     Bi       0.40643    0.40643    0.40643    1.000
    O241     O        0.15490    0.15490    0.15490    1.000
    Bi18     Bi       0.09357    0.59357    0.90643    1.000
    O242     O        0.34510    0.84510    0.65490    1.000
    Bi19     Bi       0.59357    0.90643    0.09357    1.000
    O243     O        0.84510    0.65490    0.34510    1.000
    Bi20     Bi       0.90643    0.09357    0.59357    1.000
    O244     O        0.65490    0.34510    0.84510    1.000
