# CIF file generated by openbabel 3.1.0, see https://openbabel.org
data_I
_chemical_name_common 'image0'
_cell_length_a 20.4633
_cell_length_b 9.2876
_cell_length_c 6.8839
_cell_angle_alpha 90
_cell_angle_beta 112.718
_cell_angle_gamma 90
_space_group_name_H-M_alt 'P 1'
_space_group_name_Hall 'P 1'
loop_
    _symmetry_equiv_pos_as_xyz
    x,y,z
loop_
    _atom_site_label
    _atom_site_type_symbol
    _atom_site_fract_x
    _atom_site_fract_y
    _atom_site_fract_z
    _atom_site_occupancy
    Fe1      Fe       0.00500    0.01050    0.01470    1.000
    O1       O        0.06900    0.12710    0.69370    1.000
    O2       O        0.08530    0.09840    0.02640    1.000
    O3       O        0.41850    0.36950    0.99910    1.000
    O4       O        0.43480    0.34080    0.33180    1.000
    C1       C        0.18350    0.18650    0.95300    1.000
    C2       C        0.21050    0.21610    0.80360    1.000
    C3       C        0.27890    0.26360    0.86330    1.000
    C4       C        0.32030    0.28140    0.07250    1.000
    C5       C        0.29330    0.25170    0.22200    1.000
    C6       C        0.22490    0.20430    0.16220    1.000
    C7       C        0.10890    0.13470    0.88780    1.000
    C8       C        0.39500    0.33310    0.13780    1.000
    H1       H        0.18090    0.20340    0.65390    1.000
    H2       H        0.29820    0.28480    0.75640    1.000
    H3       H        0.32300    0.26450    0.37160    1.000
    H4       H        0.20570    0.18310    0.26910    1.000
    O5       O        0.00520    0.90330    0.76290    1.000
    Fe2      Fe       0.50500    0.51050    0.01470    1.000
    O6       O        0.56900    0.62710    0.69370    1.000
    O7       O        0.58530    0.59840    0.02640    1.000
    O8       O        0.91850    0.86950    0.99910    1.000
    O9       O        0.93480    0.84080    0.33180    1.000
    C9       C        0.68350    0.68650    0.95300    1.000
    C10      C        0.71050    0.71610    0.80360    1.000
    C11      C        0.77890    0.76360    0.86330    1.000
    C12      C        0.82030    0.78140    0.07250    1.000
    C13      C        0.79330    0.75170    0.22200    1.000
    C14      C        0.72490    0.70430    0.16220    1.000
    C15      C        0.60890    0.63470    0.88780    1.000
    C16      C        0.89500    0.83310    0.13780    1.000
    H5       H        0.68090    0.70340    0.65390    1.000
    H6       H        0.79820    0.78480    0.75640    1.000
    H7       H        0.82300    0.76450    0.37160    1.000
    H8       H        0.70570    0.68310    0.26910    1.000
    O10      O        0.50520    0.40330    0.76290    1.000
    Fe3      Fe       0.00500    0.98950    0.51470    1.000
    O11      O        0.06900    0.87290    0.19370    1.000
    O12      O        0.08530    0.90160    0.52640    1.000
    O13      O        0.41850    0.63050    0.49910    1.000
    O14      O        0.43480    0.65920    0.83180    1.000
    C17      C        0.18350    0.81350    0.45300    1.000
    C18      C        0.21050    0.78390    0.30360    1.000
    C19      C        0.27890    0.73640    0.36330    1.000
    C20      C        0.32030    0.71860    0.57250    1.000
    C21      C        0.29330    0.74830    0.72200    1.000
    C22      C        0.22490    0.79570    0.66220    1.000
    C23      C        0.10890    0.86530    0.38780    1.000
    C24      C        0.39500    0.66690    0.63780    1.000
    H9       H        0.18090    0.79660    0.15390    1.000
    H10      H        0.29820    0.71520    0.25640    1.000
    H11      H        0.32300    0.73550    0.87160    1.000
    H12      H        0.20570    0.81690    0.76910    1.000
    O15      O        0.00520    0.09670    0.26290    1.000
    Fe4      Fe       0.50500    0.48950    0.51470    1.000
    O16      O        0.56900    0.37290    0.19370    1.000
    O17      O        0.58530    0.40160    0.52640    1.000
    O18      O        0.91850    0.13050    0.49910    1.000
    O19      O        0.93480    0.15920    0.83180    1.000
    C25      C        0.68350    0.31350    0.45300    1.000
    C26      C        0.71050    0.28390    0.30360    1.000
    C27      C        0.77890    0.23640    0.36330    1.000
    C28      C        0.82030    0.21860    0.57250    1.000
    C29      C        0.79330    0.24830    0.72200    1.000
    C30      C        0.72490    0.29570    0.66220    1.000
    C31      C        0.60890    0.36530    0.38780    1.000
    C32      C        0.89500    0.16690    0.63780    1.000
    H13      H        0.68090    0.29660    0.15390    1.000
    H14      H        0.79820    0.21520    0.25640    1.000
    H15      H        0.82300    0.23550    0.87160    1.000
    H16      H        0.70570    0.31690    0.76910    1.000
    O20      O        0.50520    0.59670    0.26290    1.000
