# CIF file generated by openbabel 3.1.0, see https://openbabel.org
data_I
_chemical_name_common 'LOQLIN_clean'
_cell_length_a 21.1869
_cell_length_b 21.1869
_cell_length_c 6.7423
_cell_angle_alpha 90
_cell_angle_beta 90
_cell_angle_gamma 59.966
_space_group_name_H-M_alt 'P 1'
_space_group_name_Hall 'P 1'
loop_
    _symmetry_equiv_pos_as_xyz
    x,y,z
loop_
    _atom_site_label
    _atom_site_type_symbol
    _atom_site_fract_x
    _atom_site_fract_y
    _atom_site_fract_z
    _atom_site_occupancy
    H1       H        0.32147    0.20907    0.94430    1.000
    H2       H        0.67752    0.02892    0.94430    1.000
    H3       H        0.79232    0.02380    0.94430    1.000
    C4       C        0.29833    0.23221    0.07018    1.000
    C5       C        0.70115    0.02787    0.07018    1.000
    C6       C        0.76868    0.02486    0.07018    1.000
    O7       O        0.43173    0.09881    0.08944    1.000
    O8       O        0.56488    0.03394    0.08944    1.000
    O9       O        0.90496    0.01878    0.08944    1.000
    H10      H        0.50000    0.90680    0.25000    1.000
    H11      H        0.67853    0.79093    0.44430    1.000
    H12      H        0.32248    0.97108    0.44430    1.000
    H13      H        0.20768    0.97620    0.44430    1.000
    C14      C        0.70167    0.76779    0.57018    1.000
    C15      C        0.29885    0.97213    0.57018    1.000
    C16      C        0.23132    0.97514    0.57018    1.000
    O17      O        0.56827    0.90119    0.58944    1.000
    O18      O        0.43512    0.96606    0.58944    1.000
    O19      O        0.09504    0.98122    0.58944    1.000
    H20      H        0.50000    0.09320    0.75000    1.000
    H21      H        0.20907    0.32147    0.55570    1.000
    H22      H        0.02892    0.67752    0.55570    1.000
    H23      H        0.02380    0.79232    0.55570    1.000
    C24      C        0.23221    0.29833    0.42982    1.000
    C25      C        0.02787    0.70115    0.42982    1.000
    C26      C        0.02486    0.76868    0.42982    1.000
    O27      O        0.09881    0.43173    0.41056    1.000
    O28      O        0.03394    0.56488    0.41056    1.000
    O29      O        0.01878    0.90496    0.41056    1.000
    H30      H        0.90680    0.50000    0.25000    1.000
    H31      H        0.79093    0.67853    0.05570    1.000
    H32      H        0.97108    0.32248    0.05570    1.000
    H33      H        0.97620    0.20768    0.05570    1.000
    C34      C        0.76779    0.70167    0.92982    1.000
    C35      C        0.97213    0.29885    0.92982    1.000
    C36      C        0.97514    0.23132    0.92982    1.000
    O37      O        0.90119    0.56827    0.91056    1.000
    O38      O        0.96606    0.43512    0.91056    1.000
    O39      O        0.98122    0.09504    0.91056    1.000
    H40      H        0.09320    0.50000    0.75000    1.000
    H41      H        0.67853    0.79093    0.05570    1.000
    H42      H        0.32248    0.97108    0.05570    1.000
    H43      H        0.20768    0.97620    0.05570    1.000
    C44      C        0.70167    0.76779    0.92982    1.000
    C45      C        0.29885    0.97213    0.92982    1.000
    C46      C        0.23132    0.97514    0.92982    1.000
    O47      O        0.56827    0.90119    0.91056    1.000
    O48      O        0.43512    0.96606    0.91056    1.000
    O49      O        0.09504    0.98122    0.91056    1.000
    H51      H        0.32147    0.20907    0.55570    1.000
    H52      H        0.67752    0.02892    0.55570    1.000
    H53      H        0.79232    0.02380    0.55570    1.000
    C54      C        0.29833    0.23221    0.42982    1.000
    C55      C        0.70115    0.02787    0.42982    1.000
    C56      C        0.76868    0.02486    0.42982    1.000
    O57      O        0.43173    0.09881    0.41056    1.000
    O58      O        0.56488    0.03394    0.41056    1.000
    O59      O        0.90496    0.01878    0.41056    1.000
    H61      H        0.79093    0.67853    0.44430    1.000
    H62      H        0.97108    0.32248    0.44430    1.000
    H63      H        0.97620    0.20768    0.44430    1.000
    C64      C        0.76779    0.70167    0.57018    1.000
    C65      C        0.97213    0.29885    0.57018    1.000
    C66      C        0.97514    0.23132    0.57018    1.000
    O67      O        0.90119    0.56827    0.58944    1.000
    O68      O        0.96606    0.43512    0.58944    1.000
    O69      O        0.98122    0.09504    0.58944    1.000
    H71      H        0.20907    0.32147    0.94430    1.000
    H72      H        0.02892    0.67752    0.94430    1.000
    H73      H        0.02380    0.79232    0.94430    1.000
    C74      C        0.23221    0.29833    0.07018    1.000
    C75      C        0.02787    0.70115    0.07018    1.000
    C76      C        0.02486    0.76868    0.07018    1.000
    O77      O        0.09881    0.43173    0.08944    1.000
    O78      O        0.03394    0.56488    0.08944    1.000
    O79      O        0.01878    0.90496    0.08944    1.000
    Ga81     Ga       0.50000    0.00000    0.00000    1.000
    Ga82     Ga       0.50000    0.00000    0.50000    1.000
    Ga83     Ga       0.00000    0.50000    0.50000    1.000
    Ga84     Ga       0.00000    0.50000    0.00000    1.000
    Ga85     Ga       0.00000    0.00000    0.00000    1.000
    Ga86     Ga       0.00000    0.00000    0.50000    1.000
    C87      C        0.40222    0.12832    0.25000    1.000
    C88      C        0.33138    0.19916    0.25000    1.000
    C89      C        0.59502    0.03260    0.25000    1.000
    C90      C        0.66739    0.02937    0.25000    1.000
    C91      C        0.80245    0.02335    0.25000    1.000
    C92      C        0.87481    0.02013    0.25000    1.000
    O93      O        0.50000    0.95400    0.25000    1.000
    C94      C        0.59778    0.87168    0.75000    1.000
    C95      C        0.66862    0.80084    0.75000    1.000
    C96      C        0.40498    0.96740    0.75000    1.000
    C97      C        0.33261    0.97063    0.75000    1.000
    C98      C        0.19755    0.97665    0.75000    1.000
    C99      C        0.12519    0.97987    0.75000    1.000
    O100     O        0.50000    0.04600    0.75000    1.000
    C101     C        0.12832    0.40222    0.25000    1.000
    C102     C        0.19916    0.33138    0.25000    1.000
    C103     C        0.03260    0.59502    0.25000    1.000
    C104     C        0.02937    0.66739    0.25000    1.000
    C105     C        0.02335    0.80245    0.25000    1.000
    C106     C        0.02013    0.87481    0.25000    1.000
    O107     O        0.95400    0.50000    0.25000    1.000
    C108     C        0.87168    0.59778    0.75000    1.000
    C109     C        0.80084    0.66862    0.75000    1.000
    C110     C        0.96740    0.40498    0.75000    1.000
    C111     C        0.97063    0.33261    0.75000    1.000
    C112     C        0.97665    0.19755    0.75000    1.000
    C113     C        0.97987    0.12519    0.75000    1.000
    O114     O        0.04600    0.50000    0.75000    1.000
    O115     O        0.02563    0.02563    0.25000    1.000
    O116     O        0.97437    0.97437    0.75000    1.000
