# CIF file generated by openbabel 3.1.0, see https://openbabel.org
data_I
_chemical_name_common 'image0'
_cell_length_a 9.574
_cell_length_b 22.547
_cell_length_c 10.122
_cell_angle_alpha 90
_cell_angle_beta 102.04
_cell_angle_gamma 90
_space_group_name_H-M_alt 'P 1'
_space_group_name_Hall 'P 1'
loop_
    _symmetry_equiv_pos_as_xyz
    x,y,z
loop_
    _atom_site_label
    _atom_site_type_symbol
    _atom_site_fract_x
    _atom_site_fract_y
    _atom_site_fract_z
    _atom_site_occupancy
    Eu1      Eu       0.74915    0.72216    0.95684    1.000
    Eu2      Eu       0.28188    0.56499    0.14376    1.000
    N1       N        0.22720    0.49221    0.35820    1.000
    N2       N        0.40180    0.58492    0.37860    1.000
    N3       N        0.46540    0.58658    0.60030    1.000
    H1       H        0.47554    0.57161    0.67975    1.000
    O1       O        0.93250    0.66083    0.89450    1.000
    O2       O        0.96530    0.71058    0.13910    1.000
    O3       O        0.16790    0.65797    0.20950    1.000
    O4       O        0.15110    0.62078    0.95270    1.000
    O5       O        0.39950    0.56390    0.95120    1.000
    O6       O        0.52990    0.50961    0.83540    1.000
    O7       O        0.17830    0.48098    0.00370    1.000
    O8       O        0.97570    0.44898    0.86740    1.000
    O9       O        0.47820    0.63990    0.18190    1.000
    O10      O        0.62380    0.70400    0.31170    1.000
    O11      O        0.72050    0.70621    0.61390    1.000
    O12      O        0.63290    0.66118    0.77540    1.000
    C1       C        0.04780    0.65027    0.97500    1.000
    C2       C        0.06270    0.67565    0.12200    1.000
    C3       C        0.04380    0.47986    0.96180    1.000
    C4       C        0.47860    0.52144    0.93870    1.000
    C5       C        0.53950    0.66089    0.29760    1.000
    C6       C        0.64080    0.66910    0.65410    1.000
    C7       C        0.50230    0.62899    0.41420    1.000
    C8       C        0.54400    0.63103    0.55420    1.000
    C9       C        0.38220    0.56007    0.49250    1.000
    C10      C        0.27850    0.51114    0.48730    1.000
    C11      C        0.23730    0.48710    0.59950    1.000
    H2       H        0.27315    0.50214    0.68772    1.000
    C12      C        0.14030    0.43950    0.57720    1.000
    H3       H        0.10811    0.42161    0.65042    1.000
    C13      C        0.09210    0.41900    0.44540    1.000
    H4       H        0.02983    0.38576    0.42861    1.000
    C14      C        0.13460    0.44680    0.34090    1.000
    H5       H        0.09700    0.43336    0.25154    1.000
    Eu3      Eu       0.25085    0.22216    0.54316    1.000
    Eu4      Eu       0.71812    0.06499    0.35624    1.000
    N4       N        0.77280    0.99221    0.14180    1.000
    N5       N        0.59820    0.08492    0.12140    1.000
    N6       N        0.53460    0.08658    0.89970    1.000
    H6       H        0.52446    0.07161    0.82025    1.000
    O13      O        0.06750    0.16083    0.60550    1.000
    O14      O        0.03470    0.21058    0.36090    1.000
    O15      O        0.83210    0.15797    0.29050    1.000
    O16      O        0.84890    0.12078    0.54730    1.000
    O17      O        0.60050    0.06390    0.54880    1.000
    O18      O        0.47010    0.00961    0.66460    1.000
    O19      O        0.82170    0.98098    0.49630    1.000
    O20      O        0.02430    0.94898    0.63260    1.000
    O21      O        0.52180    0.13990    0.31810    1.000
    O22      O        0.37620    0.20400    0.18830    1.000
    O23      O        0.27950    0.20621    0.88610    1.000
    O24      O        0.36710    0.16118    0.72460    1.000
    C15      C        0.95220    0.15027    0.52500    1.000
    C16      C        0.93730    0.17565    0.37800    1.000
    C17      C        0.95620    0.97986    0.53820    1.000
    C18      C        0.52140    0.02144    0.56130    1.000
    C19      C        0.46050    0.16089    0.20240    1.000
    C20      C        0.35920    0.16910    0.84590    1.000
    C21      C        0.49770    0.12899    0.08580    1.000
    C22      C        0.45600    0.13103    0.94580    1.000
    C23      C        0.61780    0.06007    0.00750    1.000
    C24      C        0.72150    0.01114    0.01270    1.000
    C25      C        0.76270    0.98710    0.90050    1.000
    H7       H        0.72685    0.00214    0.81228    1.000
    C26      C        0.85970    0.93950    0.92280    1.000
    H8       H        0.89189    0.92161    0.84958    1.000
    C27      C        0.90790    0.91900    0.05460    1.000
    H9       H        0.97017    0.88576    0.07139    1.000
    C28      C        0.86540    0.94680    0.15910    1.000
    H10      H        0.90300    0.93336    0.24846    1.000
    Eu5      Eu       0.25085    0.27784    0.04316    1.000
    Eu6      Eu       0.71812    0.43501    0.85624    1.000
    N7       N        0.77280    0.50779    0.64180    1.000
    N8       N        0.59820    0.41508    0.62140    1.000
    N9       N        0.53460    0.41342    0.39970    1.000
    H11      H        0.52446    0.42839    0.32025    1.000
    O25      O        0.06750    0.33917    0.10550    1.000
    O26      O        0.03470    0.28942    0.86090    1.000
    O27      O        0.83210    0.34203    0.79050    1.000
    O28      O        0.84890    0.37922    0.04730    1.000
    O29      O        0.60050    0.43610    0.04880    1.000
    O30      O        0.47010    0.49039    0.16460    1.000
    O31      O        0.82170    0.51902    0.99630    1.000
    O32      O        0.02430    0.55102    0.13260    1.000
    O33      O        0.52180    0.36010    0.81810    1.000
    O34      O        0.37620    0.29600    0.68830    1.000
    O35      O        0.27950    0.29379    0.38610    1.000
    O36      O        0.36710    0.33882    0.22460    1.000
    C29      C        0.95220    0.34973    0.02500    1.000
    C30      C        0.93730    0.32435    0.87800    1.000
    C31      C        0.95620    0.52014    0.03820    1.000
    C32      C        0.52140    0.47856    0.06130    1.000
    C33      C        0.46050    0.33911    0.70240    1.000
    C34      C        0.35920    0.33090    0.34590    1.000
    C35      C        0.49770    0.37101    0.58580    1.000
    C36      C        0.45600    0.36897    0.44580    1.000
    C37      C        0.61780    0.43993    0.50750    1.000
    C38      C        0.72150    0.48886    0.51270    1.000
    C39      C        0.76270    0.51290    0.40050    1.000
    H12      H        0.72685    0.49786    0.31228    1.000
    C40      C        0.85970    0.56050    0.42280    1.000
    H13      H        0.89189    0.57839    0.34958    1.000
    C41      C        0.90790    0.58100    0.55460    1.000
    H14      H        0.97017    0.61424    0.57139    1.000
    C42      C        0.86540    0.55320    0.65910    1.000
    H15      H        0.90300    0.56664    0.74846    1.000
    Eu7      Eu       0.74915    0.77784    0.45684    1.000
    Eu8      Eu       0.28188    0.93501    0.64376    1.000
    N10      N        0.22720    0.00779    0.85820    1.000
    N11      N        0.40180    0.91508    0.87860    1.000
    N12      N        0.46540    0.91342    0.10030    1.000
    H16      H        0.47554    0.92839    0.17975    1.000
    O37      O        0.93250    0.83917    0.39450    1.000
    O38      O        0.96530    0.78942    0.63910    1.000
    O39      O        0.16790    0.84203    0.70950    1.000
    O40      O        0.15110    0.87922    0.45270    1.000
    O41      O        0.39950    0.93610    0.45120    1.000
    O42      O        0.52990    0.99039    0.33540    1.000
    O43      O        0.17830    0.01902    0.50370    1.000
    O44      O        0.97570    0.05102    0.36740    1.000
    O45      O        0.47820    0.86010    0.68190    1.000
    O46      O        0.62380    0.79600    0.81170    1.000
    O47      O        0.72050    0.79379    0.11390    1.000
    O48      O        0.63290    0.83882    0.27540    1.000
    C43      C        0.04780    0.84973    0.47500    1.000
    C44      C        0.06270    0.82435    0.62200    1.000
    C45      C        0.04380    0.02014    0.46180    1.000
    C46      C        0.47860    0.97856    0.43870    1.000
    C47      C        0.53950    0.83911    0.79760    1.000
    C48      C        0.64080    0.83090    0.15410    1.000
    C49      C        0.50230    0.87101    0.91420    1.000
    C50      C        0.54400    0.86897    0.05420    1.000
    C51      C        0.38220    0.93993    0.99250    1.000
    C52      C        0.27850    0.98886    0.98730    1.000
    C53      C        0.23730    0.01290    0.09950    1.000
    H17      H        0.27315    0.99786    0.18772    1.000
    C54      C        0.14030    0.06050    0.07720    1.000
    H18      H        0.10811    0.07839    0.15042    1.000
    C55      C        0.09210    0.08100    0.94540    1.000
    H19      H        0.02983    0.11424    0.92861    1.000
    C56      C        0.13460    0.05320    0.84090    1.000
    H20      H        0.09700    0.06664    0.75154    1.000
