# CIF file generated by openbabel 3.1.0, see https://openbabel.org
data_I
_chemical_name_common 'image0'
_cell_length_a 13.9877
_cell_length_b 11.9198
_cell_length_c 23.0454
_cell_angle_alpha 90
_cell_angle_beta 104.269
_cell_angle_gamma 90
_space_group_name_H-M_alt 'P 1'
_space_group_name_Hall 'P 1'
loop_
    _symmetry_equiv_pos_as_xyz
    x,y,z
loop_
    _atom_site_label
    _atom_site_type_symbol
    _atom_site_fract_x
    _atom_site_fract_y
    _atom_site_fract_z
    _atom_site_occupancy
    Ga1      Ga       0.87215    0.54176    0.55326    1.000
    Ga2      Ga       0.84060    0.67520    0.41129    1.000
    Ga3      Ga       0.99755    0.13163    0.43825    1.000
    P1       P        0.04793    0.65693    0.50613    1.000
    P2       P        0.96089    0.55784    0.33069    1.000
    P3       P        0.85088    0.92969    0.43814    1.000
    P4       P        0.11594    0.22948    0.35888    1.000
    O1       O        0.75900    0.00060    0.43280    1.000
    O2       O        0.06240    0.54120    0.37229    1.000
    O3       O        0.13770    0.60150    0.49149    1.000
    O4       O        0.13360    0.31940    0.40501    1.000
    O5       O        0.00140    0.58290    0.54509    1.000
    O6       O        0.80650    0.61790    0.47829    1.000
    O7       O        0.97640    0.69780    0.44918    1.000
    O8       O        0.20380    0.15130    0.36525    1.000
    O9       O        0.87290    0.56850    0.35954    1.000
    O10      O        0.93150    0.45380    0.28953    1.000
    O11      O        0.96440    0.66350    0.29274    1.000
    O12      O        0.83120    0.83010    0.39573    1.000
    O13      O        0.93300    0.99850    0.42189    1.000
    O14      O        0.88630    0.89110    0.50455    1.000
    O15      O        0.08810    0.76620    0.54319    1.000
    O16      O        0.02550    0.15840    0.36547    1.000
    O17      O        0.09260    0.27470    0.29491    1.000
    Ga4      Ga       0.37215    0.04176    0.55326    1.000
    Ga5      Ga       0.34060    0.17520    0.41129    1.000
    Ga6      Ga       0.49755    0.63163    0.43825    1.000
    P5       P        0.54793    0.15693    0.50613    1.000
    P6       P        0.46089    0.05784    0.33069    1.000
    P7       P        0.35088    0.42969    0.43814    1.000
    P8       P        0.61594    0.72948    0.35888    1.000
    O18      O        0.25900    0.50060    0.43280    1.000
    O19      O        0.56240    0.04120    0.37229    1.000
    O20      O        0.63770    0.10150    0.49149    1.000
    O21      O        0.63360    0.81940    0.40501    1.000
    O22      O        0.50140    0.08290    0.54509    1.000
    O23      O        0.30650    0.11790    0.47829    1.000
    O24      O        0.47640    0.19780    0.44918    1.000
    O25      O        0.70380    0.65130    0.36525    1.000
    O26      O        0.37290    0.06850    0.35954    1.000
    O27      O        0.43150    0.95380    0.28953    1.000
    O28      O        0.46440    0.16350    0.29274    1.000
    O29      O        0.33120    0.33010    0.39573    1.000
    O30      O        0.43300    0.49850    0.42189    1.000
    O31      O        0.38630    0.39110    0.50455    1.000
    O32      O        0.58810    0.26620    0.54319    1.000
    O33      O        0.52550    0.65840    0.36547    1.000
    O34      O        0.59260    0.77470    0.29491    1.000
    Ga7      Ga       0.12785    0.54176    0.94674    1.000
    Ga8      Ga       0.15940    0.67520    0.08871    1.000
    Ga9      Ga       0.00245    0.13163    0.06175    1.000
    P9       P        0.95207    0.65693    0.99387    1.000
    P10      P        0.03911    0.55784    0.16931    1.000
    P11      P        0.14912    0.92969    0.06186    1.000
    P12      P        0.88406    0.22948    0.14112    1.000
    O35      O        0.24100    0.00060    0.06720    1.000
    O36      O        0.93760    0.54120    0.12771    1.000
    O37      O        0.86230    0.60150    0.00851    1.000
    O38      O        0.86640    0.31940    0.09499    1.000
    O39      O        0.99860    0.58290    0.95491    1.000
    O40      O        0.19350    0.61790    0.02171    1.000
    O41      O        0.02360    0.69780    0.05082    1.000
    O42      O        0.79620    0.15130    0.13475    1.000
    O43      O        0.12710    0.56850    0.14046    1.000
    O44      O        0.06850    0.45380    0.21047    1.000
    O45      O        0.03560    0.66350    0.20726    1.000
    O46      O        0.16880    0.83010    0.10427    1.000
    O47      O        0.06700    0.99850    0.07811    1.000
    O48      O        0.11370    0.89110    0.99545    1.000
    O49      O        0.91190    0.76620    0.95681    1.000
    O50      O        0.97450    0.15840    0.13453    1.000
    O51      O        0.90740    0.27470    0.20509    1.000
    Ga10     Ga       0.62785    0.04176    0.94674    1.000
    Ga11     Ga       0.65940    0.17520    0.08871    1.000
    Ga12     Ga       0.50245    0.63163    0.06175    1.000
    P13      P        0.45207    0.15693    0.99387    1.000
    P14      P        0.53911    0.05784    0.16931    1.000
    P15      P        0.64912    0.42969    0.06186    1.000
    P16      P        0.38406    0.72948    0.14112    1.000
    O52      O        0.74100    0.50060    0.06720    1.000
    O53      O        0.43760    0.04120    0.12771    1.000
    O54      O        0.36230    0.10150    0.00851    1.000
    O55      O        0.36640    0.81940    0.09499    1.000
    O56      O        0.49860    0.08290    0.95491    1.000
    O57      O        0.69350    0.11790    0.02171    1.000
    O58      O        0.52360    0.19780    0.05082    1.000
    O59      O        0.29620    0.65130    0.13475    1.000
    O60      O        0.62710    0.06850    0.14046    1.000
    O61      O        0.56850    0.95380    0.21047    1.000
    O62      O        0.53560    0.16350    0.20726    1.000
    O63      O        0.66880    0.33010    0.10427    1.000
    O64      O        0.56700    0.49850    0.07811    1.000
    O65      O        0.61370    0.39110    0.99545    1.000
    O66      O        0.41190    0.26620    0.95681    1.000
    O67      O        0.47450    0.65840    0.13453    1.000
    O68      O        0.40740    0.77470    0.20509    1.000
    Ga13     Ga       0.12785    0.45824    0.44674    1.000
    Ga14     Ga       0.15940    0.32480    0.58871    1.000
    Ga15     Ga       0.00245    0.86837    0.56175    1.000
    P17      P        0.95207    0.34307    0.49387    1.000
    P18      P        0.03911    0.44216    0.66931    1.000
    P19      P        0.14912    0.07031    0.56186    1.000
    P20      P        0.88406    0.77052    0.64112    1.000
    O69      O        0.24100    0.99940    0.56720    1.000
    O70      O        0.93760    0.45880    0.62771    1.000
    O71      O        0.86230    0.39850    0.50851    1.000
    O72      O        0.86640    0.68060    0.59499    1.000
    O73      O        0.99860    0.41710    0.45491    1.000
    O74      O        0.19350    0.38210    0.52171    1.000
    O75      O        0.02360    0.30220    0.55082    1.000
    O76      O        0.79620    0.84870    0.63475    1.000
    O77      O        0.12710    0.43150    0.64046    1.000
    O78      O        0.06850    0.54620    0.71047    1.000
    O79      O        0.03560    0.33650    0.70726    1.000
    O80      O        0.16880    0.16990    0.60427    1.000
    O81      O        0.06700    0.00150    0.57811    1.000
    O82      O        0.11370    0.10890    0.49545    1.000
    O83      O        0.91190    0.23380    0.45681    1.000
    O84      O        0.97450    0.84160    0.63453    1.000
    O85      O        0.90740    0.72530    0.70509    1.000
    Ga16     Ga       0.62785    0.95824    0.44674    1.000
    Ga17     Ga       0.65940    0.82480    0.58871    1.000
    Ga18     Ga       0.50245    0.36837    0.56175    1.000
    P21      P        0.45207    0.84307    0.49387    1.000
    P22      P        0.53911    0.94216    0.66931    1.000
    P23      P        0.64912    0.57031    0.56186    1.000
    P24      P        0.38406    0.27052    0.64112    1.000
    O86      O        0.74100    0.49940    0.56720    1.000
    O87      O        0.43760    0.95880    0.62771    1.000
    O88      O        0.36230    0.89850    0.50851    1.000
    O89      O        0.36640    0.18060    0.59499    1.000
    O90      O        0.49860    0.91710    0.45491    1.000
    O91      O        0.69350    0.88210    0.52171    1.000
    O92      O        0.52360    0.80220    0.55082    1.000
    O93      O        0.29620    0.34870    0.63475    1.000
    O94      O        0.62710    0.93150    0.64046    1.000
    O95      O        0.56850    0.04620    0.71047    1.000
    O96      O        0.53560    0.83650    0.70726    1.000
    O97      O        0.66880    0.66990    0.60427    1.000
    O98      O        0.56700    0.50150    0.57811    1.000
    O99      O        0.61370    0.60890    0.49545    1.000
    O100     O        0.41190    0.73380    0.45681    1.000
    O101     O        0.47450    0.34160    0.63453    1.000
    O102     O        0.40740    0.22530    0.70509    1.000
    Ga19     Ga       0.87215    0.45824    0.05326    1.000
    Ga20     Ga       0.84060    0.32480    0.91129    1.000
    Ga21     Ga       0.99755    0.86837    0.93825    1.000
    P25      P        0.04793    0.34307    0.00613    1.000
    P26      P        0.96089    0.44216    0.83069    1.000
    P27      P        0.85088    0.07031    0.93814    1.000
    P28      P        0.11594    0.77052    0.85888    1.000
    O103     O        0.75900    0.99940    0.93280    1.000
    O104     O        0.06240    0.45880    0.87229    1.000
    O105     O        0.13770    0.39850    0.99149    1.000
    O106     O        0.13360    0.68060    0.90501    1.000
    O107     O        0.00140    0.41710    0.04509    1.000
    O108     O        0.80650    0.38210    0.97829    1.000
    O109     O        0.97640    0.30220    0.94918    1.000
    O110     O        0.20380    0.84870    0.86525    1.000
    O111     O        0.87290    0.43150    0.85954    1.000
    O112     O        0.93150    0.54620    0.78953    1.000
    O113     O        0.96440    0.33650    0.79274    1.000
    O114     O        0.83120    0.16990    0.89573    1.000
    O115     O        0.93300    0.00150    0.92189    1.000
    O116     O        0.88630    0.10890    0.00455    1.000
    O117     O        0.08810    0.23380    0.04319    1.000
    O118     O        0.02550    0.84160    0.86547    1.000
    O119     O        0.09260    0.72530    0.79491    1.000
    Ga22     Ga       0.37215    0.95824    0.05326    1.000
    Ga23     Ga       0.34060    0.82480    0.91129    1.000
    Ga24     Ga       0.49755    0.36837    0.93825    1.000
    P29      P        0.54793    0.84307    0.00613    1.000
    P30      P        0.46089    0.94216    0.83069    1.000
    P31      P        0.35088    0.57031    0.93814    1.000
    P32      P        0.61594    0.27052    0.85888    1.000
    O120     O        0.25900    0.49940    0.93280    1.000
    O121     O        0.56240    0.95880    0.87229    1.000
    O122     O        0.63770    0.89850    0.99149    1.000
    O123     O        0.63360    0.18060    0.90501    1.000
    O124     O        0.50140    0.91710    0.04509    1.000
    O125     O        0.30650    0.88210    0.97829    1.000
    O126     O        0.47640    0.80220    0.94918    1.000
    O127     O        0.70380    0.34870    0.86525    1.000
    O128     O        0.37290    0.93150    0.85954    1.000
    O129     O        0.43150    0.04620    0.78953    1.000
    O130     O        0.46440    0.83650    0.79274    1.000
    O131     O        0.33120    0.66990    0.89573    1.000
    O132     O        0.43300    0.50150    0.92189    1.000
    O133     O        0.38630    0.60890    0.00455    1.000
    O134     O        0.58810    0.73380    0.04319    1.000
    O135     O        0.52550    0.34160    0.86547    1.000
    O136     O        0.59260    0.22530    0.79491    1.000
    Ga25     Ga       0.00000    0.36604    0.25000    1.000
    Ga26     Ga       0.50000    0.86604    0.25000    1.000
    Ga27     Ga       0.00000    0.63396    0.75000    1.000
    Ga28     Ga       0.50000    0.13396    0.75000    1.000
