# CIF file generated by openbabel 3.1.0, see https://openbabel.org
data_I
_chemical_name_common 'image0'
_cell_length_a 11.2213
_cell_length_b 39.8468
_cell_length_c 22.4948
_cell_angle_alpha 90
_cell_angle_beta 104.135
_cell_angle_gamma 90
_space_group_name_H-M_alt 'P 1'
_space_group_name_Hall 'P 1'
loop_
    _symmetry_equiv_pos_as_xyz
    x,y,z
loop_
    _atom_site_label
    _atom_site_type_symbol
    _atom_site_fract_x
    _atom_site_fract_y
    _atom_site_fract_z
    _atom_site_occupancy
    Pb1      Pb       0.18604    0.48570    0.75442    1.000
    P1       P        0.66656    0.49529    0.32151    1.000
    P2       P        0.87259    0.40591    0.29365    1.000
    P3       P        0.13570    0.20108    0.49647    1.000
    P4       P        0.24429    0.25938    0.32488    1.000
    P5       P        0.81763    0.78015    0.07283    1.000
    P6       P        0.53380    0.80812    0.90918    1.000
    Na1      Na       0.49350    0.49631    0.74453    1.000
    Na2      Na       0.91780    0.43089    0.65640    1.000
    O1       O        0.74880    0.47938    0.37610    1.000
    O2       O        0.73820    0.41111    0.26860    1.000
    O3       O        0.38600    0.48433    0.81870    1.000
    O4       O        0.28830    0.44612    0.86150    1.000
    O5       O        0.67230    0.54310    0.61610    1.000
    O6       O        0.57960    0.50561    0.66170    1.000
    O7       O        0.16070    0.18822    0.56090    1.000
    O8       O        0.14150    0.26914    0.35260    1.000
    O9       O        0.31040    0.45447    0.70090    1.000
    O10      O        0.11840    0.44427    0.64970    1.000
    O11      O        0.88310    0.03776    0.33200    1.000
    O12      O        0.69650    0.02602    0.27920    1.000
    O13      O        0.76120    0.81360    0.07470    1.000
    O14      O        0.63960    0.78643    0.90570    1.000
    O15      O        0.64350    0.53984    0.78580    1.000
    O16      O        0.75480    0.57852    0.75410    1.000
    O17      O        0.31070    0.96978    0.23150    1.000
    O18      O        0.15810    0.94478    0.26080    1.000
    C1       C        0.70740    0.48819    0.24910    1.000
    C2       C        0.82530    0.47997    0.24650    1.000
    C3       C        0.85170    0.47593    0.18690    1.000
    C4       C        0.97650    0.47235    0.18220    1.000
    H1       H        0.04170    0.47270    0.21820    1.000
    C5       C        0.00150    0.46850    0.12710    1.000
    H2       H        0.08470    0.46720    0.12460    1.000
    C6       C        0.90890    0.46620    0.07410    1.000
    H3       H        0.92900    0.46270    0.03600    1.000
    C7       C        0.78780    0.46910    0.07600    1.000
    C8       C        0.75790    0.47606    0.13440    1.000
    C9       C        0.63780    0.48416    0.13820    1.000
    H4       H        0.57310    0.48500    0.10200    1.000
    C10      C        0.61380    0.49083    0.19400    1.000
    H5       H        0.53330    0.49730    0.19580    1.000
    C11      C        0.95820    0.44316    0.32600    1.000
    C12      C        0.92850    0.47470    0.30260    1.000
    C13      C        0.99670    0.50356    0.33020    1.000
    C14      C        0.96840    0.53630    0.30630    1.000
    H6       H        0.89950    0.53940    0.27260    1.000
    C15      C        0.03570    0.56260    0.32990    1.000
    H7       H        0.01780    0.58410    0.31180    1.000
    C16      C        0.13470    0.55840    0.38250    1.000
    H8       H        0.18070    0.57750    0.39990    1.000
    C17      C        0.16540    0.52802    0.40840    1.000
    C18      C        0.09810    0.49934    0.38250    1.000
    C19      C        0.12690    0.46619    0.40360    1.000
    H9       H        0.19440    0.46270    0.43790    1.000
    C20      C        0.06250    0.43935    0.37700    1.000
    H10      H        0.08660    0.41750    0.39240    1.000
    C21      C        0.68560    0.46549    0.01930    1.000
    C22      C        0.68950    0.48440    0.96690    1.000
    H11      H        0.75870    0.49820    0.96710    1.000
    C23      C        0.59390    0.48300    0.91560    1.000
    H12      H        0.59580    0.49640    0.88090    1.000
    C24      C        0.49350    0.46183    0.91430    1.000
    C25      C        0.49390    0.44163    0.96510    1.000
    H13      H        0.42840    0.42640    0.96430    1.000
    C26      C        0.58970    0.44397    0.01620    1.000
    H14      H        0.58930    0.43010    0.05060    1.000
    C27      C        0.38100    0.46371    0.86170    1.000
    C28      C        0.27040    0.52578    0.46230    1.000
    C29      C        0.38300    0.54082    0.45940    1.000
    H15      H        0.39030    0.55120    0.42250    1.000
    C30      C        0.48170    0.54058    0.50930    1.000
    H16      H        0.55590    0.55130    0.50680    1.000
    C31      C        0.47470    0.52465    0.56410    1.000
    C32      C        0.36400    0.50981    0.56700    1.000
    H17      H        0.35720    0.49910    0.60380    1.000
    C33      C        0.26400    0.51040    0.51720    1.000
    H18      H        0.18930    0.50010    0.52030    1.000
    C34      C        0.58370    0.52446    0.61720    1.000
    C35      C        0.51020    0.48088    0.30660    1.000
    C36      C        0.49180    0.44638    0.29760    1.000
    H19      H        0.56010    0.43190    0.30000    1.000
    C37      C        0.37430    0.43330    0.28500    1.000
    H20      H        0.36100    0.40990    0.27870    1.000
    C38      C        0.27560    0.45500    0.28190    1.000
    H21      H        0.19500    0.44600    0.27490    1.000
    C39      C        0.29140    0.48890    0.28840    1.000
    H22      H        0.22270    0.50340    0.28450    1.000
    C40      C        0.40910    0.50160    0.30080    1.000
    H23      H        0.42100    0.52520    0.30540    1.000
    C41      C        0.65620    0.53994    0.33000    1.000
    C42      C        0.65080    0.56250    0.28330    1.000
    H24      H        0.65370    0.55470    0.24380    1.000
    C43      C        0.64100    0.59670    0.29380    1.000
    H25      H        0.64140    0.61230    0.26200    1.000
    C44      C        0.63080    0.60770    0.34960    1.000
    H26      H        0.62280    0.63110    0.35610    1.000
    C45      C        0.63190    0.58600    0.39610    1.000
    H27      H        0.62350    0.59390    0.43470    1.000
    C46      C        0.64590    0.55180    0.38580    1.000
    H28      H        0.64830    0.53640    0.41830    1.000
    C47      C        0.90690    0.37648    0.35580    1.000
    C48      C        0.87200    0.38565    0.40900    1.000
    H29      H        0.83510    0.40700    0.41090    1.000
    C49      C        0.88980    0.36454    0.45830    1.000
    H30      H        0.86570    0.37150    0.49400    1.000
    C50      C        0.94340    0.33280    0.45680    1.000
    H31      H        0.95490    0.31790    0.49080    1.000
    C51      C        0.97830    0.32397    0.40450    1.000
    H32      H        0.01590    0.30280    0.40260    1.000
    C52      C        0.96020    0.34533    0.35420    1.000
    H33      H        0.98450    0.33850    0.31850    1.000
    C53      C        0.94580    0.39132    0.23500    1.000
    C54      C        0.87280    0.39020    0.17600    1.000
    H34      H        0.78820    0.39600    0.16790    1.000
    C55      C        0.92540    0.38030    0.12770    1.000
    H35      H        0.87640    0.37960    0.08680    1.000
    C56      C        0.04510    0.37190    0.13970    1.000
    H36      H        0.07930    0.36510    0.10700    1.000
    C57      C        0.11950    0.37310    0.19870    1.000
    H37      H        0.20390    0.36720    0.20610    1.000
    C58      C        0.07020    0.38293    0.24700    1.000
    H38      H        0.12050    0.38390    0.28760    1.000
    C59      C        0.21990    0.23938    0.49300    1.000
    C60      C        0.31660    0.24549    0.46760    1.000
    C61      C        0.38700    0.27688    0.48220    1.000
    C62      C        0.49860    0.28208    0.46540    1.000
    H39      H        0.53010    0.26490    0.44420    1.000
    C63      C        0.56160    0.31110    0.47890    1.000
    H40      H        0.63730    0.31400    0.46770    1.000
    C64      C        0.51590    0.33706    0.50930    1.000
    H41      H        0.56090    0.35740    0.51840    1.000
    C65      C        0.40670    0.33340    0.52630    1.000
    C66      C        0.34080    0.30220    0.51560    1.000
    C67      C        0.23640    0.29514    0.53670    1.000
    H42      H        0.20420    0.31220    0.55790    1.000
    C68      C        0.17950    0.26522    0.52810    1.000
    H43      H        0.11170    0.26110    0.54540    1.000
    C69      C        0.34020    0.22539    0.36520    1.000
    C70      C        0.36330    0.22109    0.42750    1.000
    C71      C        0.43880    0.19352    0.45640    1.000
    C72      C        0.46750    0.18870    0.52040    1.000
    H44      H        0.43880    0.20440    0.54560    1.000
    C73      C        0.53580    0.16188    0.54660    1.000
    H45      H        0.55360    0.15890    0.58980    1.000
    C74      C        0.58000    0.13870    0.51070    1.000
    H46      H        0.62600    0.11990    0.52990    1.000
    C75      C        0.55890    0.14230    0.44900    1.000
    C76      C        0.48520    0.17030    0.41950    1.000
    C77      C        0.46380    0.17667    0.35590    1.000
    H47      H        0.49920    0.16240    0.33100    1.000
    C78      C        0.39270    0.20313    0.32990    1.000
    H48      H        0.37810    0.20670    0.28700    1.000
    C79      C        0.36290    0.36176    0.55950    1.000
    C80      C        0.24310    0.37447    0.53870    1.000
    H49      H        0.19040    0.36580    0.50230    1.000
    C81      C        0.20180    0.39941    0.57070    1.000
    H50      H        0.11980    0.40730    0.55690    1.000
    C82      C        0.27800    0.41328    0.62310    1.000
    C83      C        0.39860    0.40195    0.64140    1.000
    H51      H        0.45320    0.41230    0.67540    1.000
    C84      C        0.44040    0.37625    0.61160    1.000
    H52      H        0.52200    0.36820    0.62630    1.000
    C85      C        0.23000    0.43948    0.65930    1.000
    C86      C        0.61210    0.11805    0.41240    1.000
    C87      C        0.73910    0.11188    0.42990    1.000
    H53      H        0.78930    0.12380    0.46340    1.000
    C88      C        0.79150    0.08839    0.39850    1.000
    H54      H        0.87760    0.08450    0.41040    1.000
    C89      C        0.71860    0.07034    0.34940    1.000
    C90      C        0.59270    0.07749    0.33180    1.000
    H55      H        0.54220    0.06590    0.29800    1.000
    C91      C        0.54100    0.10096    0.36240    1.000
    H56      H        0.45560    0.10560    0.34930    1.000
    C92      C        0.77170    0.04291    0.31950    1.000
    C93      C        0.97700    0.21307    0.46590    1.000
    C94      C        0.89050    0.19969    0.49470    1.000
    H57      H        0.91490    0.18580    0.52990    1.000
    C95      C        0.76660    0.20750    0.46980    1.000
    H58      H        0.70530    0.19870    0.48800    1.000
    C96      C        0.73330    0.22790    0.41920    1.000
    H59      H        0.64880    0.23250    0.40200    1.000
    C97      C        0.81960    0.24163    0.39340    1.000
    H60      H        0.79580    0.25620    0.35920    1.000
    C98      C        0.94170    0.23419    0.41720    1.000
    H61      H        0.00220    0.24390    0.39950    1.000
    C99      C        0.16340    0.16842    0.44580    1.000
    C100     C        0.13210    0.17238    0.38280    1.000
    H62      H        0.09650    0.19280    0.36530    1.000
    C101     C        0.15240    0.14663    0.34520    1.000
    H63      H        0.13070    0.14930    0.30190    1.000
    C102     C        0.20490    0.11678    0.37140    1.000
    H64      H        0.21980    0.09910    0.34580    1.000
    C103     C        0.23540    0.11273    0.43370    1.000
    H65      H        0.27070    0.09230    0.45130    1.000
    C104     C        0.21420    0.13878    0.47110    1.000
    H66      H        0.23500    0.13600    0.51430    1.000
    C105     C        0.34890    0.29408    0.32310    1.000
    C106     C        0.45840    0.28991    0.30500    1.000
    H67      H        0.47830    0.26870    0.29070    1.000
    C107     C        0.53880    0.31696    0.30780    1.000
    H68      H        0.61310    0.31430    0.29520    1.000
    C108     C        0.50920    0.34750    0.32890    1.000
    H69      H        0.56450    0.36580    0.33210    1.000
    C109     C        0.39720    0.35162    0.34590    1.000
    H70      H        0.37550    0.37290    0.35910    1.000
    C110     C        0.31950    0.32469    0.34330    1.000
    H71      H        0.24480    0.32730    0.35550    1.000
    C111     C        0.18720    0.24346    0.24820    1.000
    C112     C        0.23280    0.25287    0.19820    1.000
    H72      H        0.29510    0.26950    0.20280    1.000
    C113     C        0.18670    0.23790    0.14230    1.000
    H73      H        0.22060    0.24370    0.10890    1.000
    C114     C        0.09310    0.21470    0.13320    1.000
    H74      H        0.06120    0.20480    0.09410    1.000
    C115     C        0.04720    0.20650    0.18330    1.000
    H75      H        0.98260    0.19050    0.17840    1.000
    C116     C        0.09210    0.22050    0.23860    1.000
    H76      H        0.05770    0.21450    0.27180    1.000
    C117     C        0.71700    0.74909    0.02850    1.000
    C118     C        0.59170    0.75248    0.01170    1.000
    C119     C        0.51520    0.72619    0.97750    1.000
    C120     C        0.38790    0.72737    0.96610    1.000
    H77      H        0.34990    0.74580    0.98100    1.000
    C121     C        0.31680    0.70270    0.93420    1.000
    H78      H        0.23010    0.70340    0.92830    1.000
    C122     C        0.37280    0.67580    0.90960    1.000
    H79      H        0.32260    0.65890    0.88630    1.000
    C123     C        0.49600    0.67386    0.91870    1.000
    C124     C        0.57320    0.69803    0.95700    1.000
    C125     C        0.70220    0.69546    0.97320    1.000
    H80      H        0.74140    0.67680    0.95970    1.000
    C126     C        0.77190    0.72007    0.00880    1.000
    H81      H        0.85870    0.71770    0.02050    1.000
    C127     C        0.50100    0.80940    0.98470    1.000
    C128     C        0.52830    0.78325    0.02650    1.000
    C129     C        0.49680    0.78533    0.08380    1.000
    C130     C        0.51440    0.75798    0.12480    1.000
    H82      H        0.55130    0.73790    0.11490    1.000
    C131     C        0.47890    0.76007    0.17850    1.000
    H83      H        0.48530    0.74100    0.20450    1.000
    C132     C        0.43260    0.79081    0.19530    1.000
    H84      H        0.41180    0.79230    0.23370    1.000
    C133     C        0.41700    0.81794    0.15840    1.000
    C134     C        0.44570    0.81615    0.10110    1.000
    C135     C        0.41780    0.84194    0.05560    1.000
    H85      H        0.38080    0.86210    0.06500    1.000
    C136     C        0.44180    0.83885    0.00040    1.000
    H86      H        0.41920    0.85640    0.97120    1.000
    C137     C        0.54930    0.64593    0.88730    1.000
    C138     C        0.52270    0.61264    0.89610    1.000
    H87      H        0.47560    0.60670    0.92440    1.000
    C139     C        0.56710    0.58758    0.86230    1.000
    H88      H        0.54980    0.56460    0.86790    1.000
    C140     C        0.63400    0.59617    0.82180    1.000
    C141     C        0.65870    0.63016    0.81340    1.000
    H89      H        0.70350    0.63650    0.78440    1.000
    C142     C        0.61840    0.65370    0.84670    1.000
    H90      H        0.63860    0.67650    0.84190    1.000
    C143     C        0.67950    0.56956    0.78420    1.000
    C144     C        0.37150    0.85033    0.17970    1.000
    C145     C        0.26940    0.85104    0.20410    1.000
    H91      H        0.22610    0.83090    0.20730    1.000
    C146     C        0.23020    0.88146    0.22380    1.000
    H92      H        0.16040    0.88170    0.24070    1.000
    C147     C        0.29140    0.91120    0.21920    1.000
    C148     C        0.39660    0.90961    0.19560    1.000
    H93      H        0.44110    0.92950    0.19250    1.000
    C149     C        0.43500    0.87994    0.17710    1.000
    H94      H        0.50710    0.87950    0.16210    1.000
    C150     C        0.24860    0.94393    0.23830    1.000
    C151     C        0.87490    0.76230    0.14730    1.000
    C152     C        0.90130    0.73000    0.15840    1.000
    H95      H        0.88070    0.71450    0.12540    1.000
    C153     C        0.95850    0.71790    0.21720    1.000
    H96      H        0.97680    0.69470    0.22260    1.000
    C154     C        0.98700    0.73810    0.26510    1.000
    H97      H        0.02230    0.72990    0.30530    1.000
    C155     C        0.96300    0.77300    0.25330    1.000
    H98      H        0.98420    0.78850    0.28630    1.000
    C156     C        0.90950    0.78490    0.19510    1.000
    H99      H        0.89670    0.80830    0.18810    1.000
    C157     C        0.94850    0.78191    0.03980    1.000
    C158     C        0.06540    0.77540    0.07320    1.000
    H100     H        0.07950    0.76900    0.11500    1.000
    C159     C        0.16690    0.77830    0.04490    1.000
    H101     H        0.24810    0.77320    0.06740    1.000
    C160     C        0.14450    0.78870    0.98500    1.000
    H102     H        0.21120    0.79150    0.96630    1.000
    C161     C        0.02820    0.79500    0.95220    1.000
    H103     H        0.01420    0.80150    0.91040    1.000
    C162     C        0.92760    0.79210    0.97930    1.000
    H104     H        0.84670    0.79710    0.95630    1.000
    C163     C        0.56230    0.85170    0.89490    1.000
    C164     C        0.66030    0.86659    0.93500    1.000
    H105     H        0.70800    0.85400    0.96830    1.000
    C165     C        0.68980    0.89940    0.92730    1.000
    H106     H        0.75950    0.90900    0.95450    1.000
    C166     C        0.61930    0.91870    0.88020    1.000
    H107     H        0.64000    0.94150    0.87520    1.000
    C167     C        0.51750    0.90400    0.84040    1.000
    H108     H        0.46640    0.91680    0.80860    1.000
    C168     C        0.49180    0.87047    0.84780    1.000
    H109     H        0.42430    0.86020    0.81990    1.000
    C169     C        0.39430    0.79491    0.85700    1.000
    C170     C        0.28260    0.81050    0.85070    1.000
    H110     H        0.27640    0.82940    0.87550    1.000
    C171     C        0.17780    0.79890    0.80810    1.000
    H111     H        0.10150    0.81040    0.80220    1.000
    C172     C        0.18880    0.77030    0.77500    1.000
    H112     H        0.11800    0.76190    0.74670    1.000
    C173     C        0.29230    0.75430    0.78130    1.000
    H113     H        0.29550    0.73460    0.75780    1.000
    C174     C        0.39770    0.76580    0.82170    1.000
    H114     H        0.47290    0.75400    0.82590    1.000
    Pb2      Pb       0.81396    0.98570    0.24558    1.000
    P7       P        0.33344    0.99529    0.67849    1.000
    P8       P        0.12741    0.90591    0.70635    1.000
    P9       P        0.86430    0.70108    0.50353    1.000
    P10      P        0.75571    0.75938    0.67512    1.000
    P11      P        0.18237    0.28015    0.92717    1.000
    P12      P        0.46620    0.30812    0.09082    1.000
    Na3      Na       0.50650    0.99631    0.25547    1.000
    Na4      Na       0.08220    0.93089    0.34360    1.000
    O19      O        0.25120    0.97938    0.62390    1.000
    O20      O        0.26180    0.91111    0.73140    1.000
    O21      O        0.61400    0.98433    0.18130    1.000
    O22      O        0.71170    0.94612    0.13850    1.000
    O23      O        0.32770    0.04310    0.38390    1.000
    O24      O        0.42040    0.00561    0.33830    1.000
    O25      O        0.83930    0.68822    0.43910    1.000
    O26      O        0.85850    0.76914    0.64740    1.000
    O27      O        0.68960    0.95447    0.29910    1.000
    O28      O        0.88160    0.94427    0.35030    1.000
    O29      O        0.11690    0.53776    0.66800    1.000
    O30      O        0.30350    0.52602    0.72080    1.000
    O31      O        0.23880    0.31360    0.92530    1.000
    O32      O        0.36040    0.28643    0.09430    1.000
    O33      O        0.35650    0.03984    0.21420    1.000
    O34      O        0.24520    0.07852    0.24590    1.000
    O35      O        0.68930    0.46978    0.76850    1.000
    O36      O        0.84190    0.44478    0.73920    1.000
    C175     C        0.29260    0.98819    0.75090    1.000
    C176     C        0.17470    0.97997    0.75350    1.000
    C177     C        0.14830    0.97593    0.81310    1.000
    C178     C        0.02350    0.97235    0.81780    1.000
    H115     H        0.95830    0.97270    0.78180    1.000
    C179     C        0.99850    0.96850    0.87290    1.000
    H116     H        0.91530    0.96720    0.87540    1.000
    C180     C        0.09110    0.96620    0.92590    1.000
    H117     H        0.07100    0.96270    0.96400    1.000
    C181     C        0.21220    0.96910    0.92400    1.000
    C182     C        0.24210    0.97606    0.86560    1.000
    C183     C        0.36220    0.98416    0.86180    1.000
    H118     H        0.42690    0.98500    0.89800    1.000
    C184     C        0.38620    0.99083    0.80600    1.000
    H119     H        0.46670    0.99730    0.80420    1.000
    C185     C        0.04180    0.94316    0.67400    1.000
    C186     C        0.07150    0.97470    0.69740    1.000
    C187     C        0.00330    0.00356    0.66980    1.000
    C188     C        0.03160    0.03630    0.69370    1.000
    H120     H        0.10050    0.03940    0.72740    1.000
    C189     C        0.96430    0.06260    0.67010    1.000
    H121     H        0.98220    0.08410    0.68820    1.000
    C190     C        0.86530    0.05840    0.61750    1.000
    H122     H        0.81930    0.07750    0.60010    1.000
    C191     C        0.83460    0.02802    0.59160    1.000
    C192     C        0.90190    0.99934    0.61750    1.000
    C193     C        0.87310    0.96619    0.59640    1.000
    H123     H        0.80560    0.96270    0.56210    1.000
    C194     C        0.93750    0.93935    0.62300    1.000
    H124     H        0.91340    0.91750    0.60760    1.000
    C195     C        0.31440    0.96549    0.98070    1.000
    C196     C        0.31050    0.98440    0.03310    1.000
    H125     H        0.24130    0.99820    0.03290    1.000
    C197     C        0.40610    0.98300    0.08440    1.000
    H126     H        0.40420    0.99640    0.11910    1.000
    C198     C        0.50650    0.96183    0.08570    1.000
    C199     C        0.50610    0.94163    0.03490    1.000
    H127     H        0.57160    0.92640    0.03570    1.000
    C200     C        0.41030    0.94397    0.98380    1.000
    H128     H        0.41070    0.93010    0.94940    1.000
    C201     C        0.61900    0.96371    0.13830    1.000
    C202     C        0.72960    0.02578    0.53770    1.000
    C203     C        0.61700    0.04082    0.54060    1.000
    H129     H        0.60970    0.05120    0.57750    1.000
    C204     C        0.51830    0.04058    0.49070    1.000
    H130     H        0.44410    0.05130    0.49320    1.000
    C205     C        0.52530    0.02465    0.43590    1.000
    C206     C        0.63600    0.00981    0.43300    1.000
    H131     H        0.64280    0.99910    0.39620    1.000
    C207     C        0.73600    0.01040    0.48280    1.000
    H132     H        0.81070    0.00010    0.47970    1.000
    C208     C        0.41630    0.02446    0.38280    1.000
    C209     C        0.48980    0.98088    0.69340    1.000
    C210     C        0.50820    0.94638    0.70240    1.000
    H133     H        0.43990    0.93190    0.70000    1.000
    C211     C        0.62570    0.93330    0.71500    1.000
    H134     H        0.63900    0.90990    0.72130    1.000
    C212     C        0.72440    0.95500    0.71810    1.000
    H135     H        0.80500    0.94600    0.72510    1.000
    C213     C        0.70860    0.98890    0.71160    1.000
    H136     H        0.77730    0.00340    0.71550    1.000
    C214     C        0.59090    0.00160    0.69920    1.000
    H137     H        0.57900    0.02520    0.69460    1.000
    C215     C        0.34380    0.03994    0.67000    1.000
    C216     C        0.34920    0.06250    0.71670    1.000
    H138     H        0.34630    0.05470    0.75620    1.000
    C217     C        0.35900    0.09670    0.70620    1.000
    H139     H        0.35860    0.11230    0.73800    1.000
    C218     C        0.36920    0.10770    0.65040    1.000
    H140     H        0.37720    0.13110    0.64390    1.000
    C219     C        0.36810    0.08600    0.60390    1.000
    H141     H        0.37650    0.09390    0.56530    1.000
    C220     C        0.35410    0.05180    0.61420    1.000
    H142     H        0.35170    0.03640    0.58170    1.000
    C221     C        0.09310    0.87648    0.64420    1.000
    C222     C        0.12800    0.88565    0.59100    1.000
    H143     H        0.16490    0.90700    0.58910    1.000
    C223     C        0.11020    0.86454    0.54170    1.000
    H144     H        0.13430    0.87150    0.50600    1.000
    C224     C        0.05660    0.83280    0.54320    1.000
    H145     H        0.04510    0.81790    0.50920    1.000
    C225     C        0.02170    0.82397    0.59550    1.000
    H146     H        0.98410    0.80280    0.59740    1.000
    C226     C        0.03980    0.84533    0.64580    1.000
    H147     H        0.01550    0.83850    0.68150    1.000
    C227     C        0.05420    0.89132    0.76500    1.000
    C228     C        0.12720    0.89020    0.82400    1.000
    H148     H        0.21180    0.89600    0.83210    1.000
    C229     C        0.07460    0.88030    0.87230    1.000
    H149     H        0.12360    0.87960    0.91320    1.000
    C230     C        0.95490    0.87190    0.86030    1.000
    H150     H        0.92070    0.86510    0.89300    1.000
    C231     C        0.88050    0.87310    0.80130    1.000
    H151     H        0.79610    0.86720    0.79390    1.000
    C232     C        0.92980    0.88293    0.75300    1.000
    H152     H        0.87950    0.88390    0.71240    1.000
    C233     C        0.78010    0.73938    0.50700    1.000
    C234     C        0.68340    0.74549    0.53240    1.000
    C235     C        0.61300    0.77688    0.51780    1.000
    C236     C        0.50140    0.78208    0.53460    1.000
    H153     H        0.46990    0.76490    0.55580    1.000
    C237     C        0.43840    0.81110    0.52110    1.000
    H154     H        0.36270    0.81400    0.53230    1.000
    C238     C        0.48410    0.83706    0.49070    1.000
    H155     H        0.43910    0.85740    0.48160    1.000
    C239     C        0.59330    0.83340    0.47370    1.000
    C240     C        0.65920    0.80220    0.48440    1.000
    C241     C        0.76360    0.79514    0.46330    1.000
    H156     H        0.79580    0.81220    0.44210    1.000
    C242     C        0.82050    0.76522    0.47190    1.000
    H157     H        0.88830    0.76110    0.45460    1.000
    C243     C        0.65980    0.72539    0.63480    1.000
    C244     C        0.63670    0.72109    0.57250    1.000
    C245     C        0.56120    0.69352    0.54360    1.000
    C246     C        0.53250    0.68870    0.47960    1.000
    H158     H        0.56120    0.70440    0.45440    1.000
    C247     C        0.46420    0.66188    0.45340    1.000
    H159     H        0.44640    0.65890    0.41020    1.000
    C248     C        0.42000    0.63870    0.48930    1.000
    H160     H        0.37400    0.61990    0.47010    1.000
    C249     C        0.44110    0.64230    0.55100    1.000
    C250     C        0.51480    0.67030    0.58050    1.000
    C251     C        0.53620    0.67667    0.64410    1.000
    H161     H        0.50080    0.66240    0.66900    1.000
    C252     C        0.60730    0.70313    0.67010    1.000
    H162     H        0.62190    0.70670    0.71300    1.000
    C253     C        0.63710    0.86176    0.44050    1.000
    C254     C        0.75690    0.87447    0.46130    1.000
    H163     H        0.80960    0.86580    0.49770    1.000
    C255     C        0.79820    0.89941    0.42930    1.000
    H164     H        0.88020    0.90730    0.44310    1.000
    C256     C        0.72200    0.91328    0.37690    1.000
    C257     C        0.60140    0.90195    0.35860    1.000
    H165     H        0.54680    0.91230    0.32460    1.000
    C258     C        0.55960    0.87625    0.38840    1.000
    H166     H        0.47800    0.86820    0.37370    1.000
    C259     C        0.77000    0.93948    0.34070    1.000
    C260     C        0.38790    0.61805    0.58760    1.000
    C261     C        0.26090    0.61188    0.57010    1.000
    H167     H        0.21070    0.62380    0.53660    1.000
    C262     C        0.20850    0.58839    0.60150    1.000
    H168     H        0.12240    0.58450    0.58960    1.000
    C263     C        0.28140    0.57034    0.65060    1.000
    C264     C        0.40730    0.57749    0.66820    1.000
    H169     H        0.45780    0.56590    0.70200    1.000
    C265     C        0.45900    0.60096    0.63760    1.000
    H170     H        0.54440    0.60560    0.65070    1.000
    C266     C        0.22830    0.54291    0.68050    1.000
    C267     C        0.02300    0.71307    0.53410    1.000
    C268     C        0.10950    0.69969    0.50530    1.000
    H171     H        0.08510    0.68580    0.47010    1.000
    C269     C        0.23340    0.70750    0.53020    1.000
    H172     H        0.29470    0.69870    0.51200    1.000
    C270     C        0.26670    0.72790    0.58080    1.000
    H173     H        0.35120    0.73250    0.59800    1.000
    C271     C        0.18040    0.74163    0.60660    1.000
    H174     H        0.20420    0.75620    0.64080    1.000
    C272     C        0.05830    0.73419    0.58280    1.000
    H175     H        0.99780    0.74390    0.60050    1.000
    C273     C        0.83660    0.66842    0.55420    1.000
    C274     C        0.86790    0.67238    0.61720    1.000
    H176     H        0.90350    0.69280    0.63470    1.000
    C275     C        0.84760    0.64663    0.65480    1.000
    H177     H        0.86930    0.64930    0.69810    1.000
    C276     C        0.79510    0.61678    0.62860    1.000
    H178     H        0.78020    0.59910    0.65420    1.000
    C277     C        0.76460    0.61273    0.56630    1.000
    H179     H        0.72930    0.59230    0.54870    1.000
    C278     C        0.78580    0.63878    0.52890    1.000
    H180     H        0.76500    0.63600    0.48570    1.000
    C279     C        0.65110    0.79408    0.67690    1.000
    C280     C        0.54160    0.78991    0.69500    1.000
    H181     H        0.52170    0.76870    0.70930    1.000
    C281     C        0.46120    0.81696    0.69220    1.000
    H182     H        0.38690    0.81430    0.70480    1.000
    C282     C        0.49080    0.84750    0.67110    1.000
    H183     H        0.43550    0.86580    0.66790    1.000
    C283     C        0.60280    0.85162    0.65410    1.000
    H184     H        0.62450    0.87290    0.64090    1.000
    C284     C        0.68050    0.82469    0.65670    1.000
    H185     H        0.75520    0.82730    0.64450    1.000
    C285     C        0.81280    0.74346    0.75180    1.000
    C286     C        0.76720    0.75287    0.80180    1.000
    H186     H        0.70490    0.76950    0.79720    1.000
    C287     C        0.81330    0.73790    0.85770    1.000
    H187     H        0.77940    0.74370    0.89110    1.000
    C288     C        0.90690    0.71470    0.86680    1.000
    H188     H        0.93880    0.70480    0.90590    1.000
    C289     C        0.95280    0.70650    0.81670    1.000
    H189     H        0.01740    0.69050    0.82160    1.000
    C290     C        0.90790    0.72050    0.76140    1.000
    H190     H        0.94230    0.71450    0.72820    1.000
    C291     C        0.28300    0.24909    0.97150    1.000
    C292     C        0.40830    0.25248    0.98830    1.000
    C293     C        0.48480    0.22619    0.02250    1.000
    C294     C        0.61210    0.22737    0.03390    1.000
    H191     H        0.65010    0.24580    0.01900    1.000
    C295     C        0.68320    0.20270    0.06580    1.000
    H192     H        0.76990    0.20340    0.07170    1.000
    C296     C        0.62720    0.17580    0.09040    1.000
    H193     H        0.67740    0.15890    0.11370    1.000
    C297     C        0.50400    0.17386    0.08130    1.000
    C298     C        0.42680    0.19803    0.04300    1.000
    C299     C        0.29780    0.19546    0.02680    1.000
    H194     H        0.25860    0.17680    0.04030    1.000
    C300     C        0.22810    0.22007    0.99120    1.000
    H195     H        0.14130    0.21770    0.97950    1.000
    C301     C        0.49900    0.30940    0.01530    1.000
    C302     C        0.47170    0.28325    0.97350    1.000
    C303     C        0.50320    0.28533    0.91620    1.000
    C304     C        0.48560    0.25798    0.87520    1.000
    H196     H        0.44870    0.23790    0.88510    1.000
    C305     C        0.52110    0.26007    0.82150    1.000
    H197     H        0.51470    0.24100    0.79550    1.000
    C306     C        0.56740    0.29081    0.80470    1.000
    H198     H        0.58820    0.29230    0.76630    1.000
    C307     C        0.58300    0.31794    0.84160    1.000
    C308     C        0.55430    0.31615    0.89890    1.000
    C309     C        0.58220    0.34194    0.94440    1.000
    H199     H        0.61920    0.36210    0.93500    1.000
    C310     C        0.55820    0.33885    0.99960    1.000
    H200     H        0.58080    0.35640    0.02880    1.000
    C311     C        0.45070    0.14593    0.11270    1.000
    C312     C        0.47730    0.11264    0.10390    1.000
    H201     H        0.52440    0.10670    0.07560    1.000
    C313     C        0.43290    0.08758    0.13770    1.000
    H202     H        0.45020    0.06460    0.13210    1.000
    C314     C        0.36600    0.09617    0.17820    1.000
    C315     C        0.34130    0.13016    0.18660    1.000
    H203     H        0.29650    0.13650    0.21560    1.000
    C316     C        0.38160    0.15370    0.15330    1.000
    H204     H        0.36140    0.17650    0.15810    1.000
    C317     C        0.32050    0.06956    0.21580    1.000
    C318     C        0.62850    0.35033    0.82030    1.000
    C319     C        0.73060    0.35104    0.79590    1.000
    H205     H        0.77390    0.33090    0.79270    1.000
    C320     C        0.76980    0.38146    0.77620    1.000
    H206     H        0.83960    0.38170    0.75930    1.000
    C321     C        0.70860    0.41120    0.78080    1.000
    C322     C        0.60340    0.40961    0.80440    1.000
    H207     H        0.55890    0.42950    0.80750    1.000
    C323     C        0.56500    0.37994    0.82290    1.000
    H208     H        0.49290    0.37950    0.83790    1.000
    C324     C        0.75140    0.44393    0.76170    1.000
    C325     C        0.12510    0.26230    0.85270    1.000
    C326     C        0.09870    0.23000    0.84160    1.000
    H209     H        0.11930    0.21450    0.87460    1.000
    C327     C        0.04150    0.21790    0.78280    1.000
    H210     H        0.02320    0.19470    0.77740    1.000
    C328     C        0.01300    0.23810    0.73490    1.000
    H211     H        0.97770    0.22990    0.69470    1.000
    C329     C        0.03700    0.27300    0.74670    1.000
    H212     H        0.01580    0.28850    0.71370    1.000
    C330     C        0.09050    0.28490    0.80490    1.000
    H213     H        0.10330    0.30830    0.81190    1.000
    C331     C        0.05150    0.28191    0.96020    1.000
    C332     C        0.93460    0.27540    0.92680    1.000
    H214     H        0.92050    0.26900    0.88500    1.000
    C333     C        0.83310    0.27830    0.95510    1.000
    H215     H        0.75190    0.27320    0.93260    1.000
    C334     C        0.85550    0.28870    0.01500    1.000
    H216     H        0.78880    0.29150    0.03370    1.000
    C335     C        0.97180    0.29500    0.04780    1.000
    H217     H        0.98580    0.30150    0.08960    1.000
    C336     C        0.07240    0.29210    0.02070    1.000
    H218     H        0.15330    0.29710    0.04370    1.000
    C337     C        0.43770    0.35170    0.10510    1.000
    C338     C        0.33970    0.36659    0.06500    1.000
    H219     H        0.29200    0.35400    0.03170    1.000
    C339     C        0.31020    0.39940    0.07270    1.000
    H220     H        0.24050    0.40900    0.04550    1.000
    C340     C        0.38070    0.41870    0.11980    1.000
    H221     H        0.36000    0.44150    0.12480    1.000
    C341     C        0.48250    0.40400    0.15960    1.000
    H222     H        0.53360    0.41680    0.19140    1.000
    C342     C        0.50820    0.37047    0.15220    1.000
    H223     H        0.57570    0.36020    0.18010    1.000
    C343     C        0.60570    0.29491    0.14300    1.000
    C344     C        0.71740    0.31050    0.14930    1.000
    H224     H        0.72360    0.32940    0.12450    1.000
    C345     C        0.82220    0.29890    0.19190    1.000
    H225     H        0.89850    0.31040    0.19780    1.000
    C346     C        0.81120    0.27030    0.22500    1.000
    H226     H        0.88200    0.26190    0.25330    1.000
    C347     C        0.70770    0.25430    0.21870    1.000
    H227     H        0.70450    0.23460    0.24220    1.000
    C348     C        0.60230    0.26580    0.17830    1.000
    H228     H        0.52710    0.25400    0.17410    1.000
