# CIF file generated by openbabel 3.1.0, see https://openbabel.org
data_I
_chemical_name_common 'image0'
_cell_length_a 26.1317
_cell_length_b 26.1317
_cell_length_c 6.722
_cell_angle_alpha 90
_cell_angle_beta 90
_cell_angle_gamma 120
_space_group_name_H-M_alt 'P 1'
_space_group_name_Hall 'P 1'
loop_
    _symmetry_equiv_pos_as_xyz
    x,y,z
loop_
    _atom_site_label
    _atom_site_type_symbol
    _atom_site_fract_x
    _atom_site_fract_y
    _atom_site_fract_z
    _atom_site_occupancy
    Co1      Co       0.38496    0.34926    0.15008    1.000
    C1       C        0.32926    0.20814    0.28540    1.000
    C2       C        0.34415    0.22015    0.08520    1.000
    C3       C        0.34822    0.17867    0.96654    1.000
    H1       H        0.35980    0.18800    0.81110    1.000
    C4       C        0.31392    0.24562    0.42300    1.000
    O1       O        0.32382    0.29195    0.35840    1.000
    O2       O        0.29972    0.22892    0.59020    1.000
    O3       O        0.35535    0.27214    0.99570    1.000
    Co2      Co       0.05163    0.68259    0.48341    1.000
    C5       C        0.99593    0.54147    0.61873    1.000
    C6       C        0.01082    0.55348    0.41853    1.000
    C7       C        0.01489    0.51200    0.29987    1.000
    H2       H        0.02647    0.52133    0.14443    1.000
    C8       C        0.98059    0.57895    0.75633    1.000
    O4       O        0.99049    0.62528    0.69173    1.000
    O5       O        0.96639    0.56225    0.92353    1.000
    O6       O        0.02202    0.60547    0.32903    1.000
    Co3      Co       0.71829    0.01593    0.81675    1.000
    C9       C        0.66259    0.87481    0.95207    1.000
    C10      C        0.67748    0.88682    0.75187    1.000
    C11      C        0.68155    0.84534    0.63321    1.000
    H3       H        0.69313    0.85467    0.47777    1.000
    C12      C        0.64725    0.91229    0.08967    1.000
    O7       O        0.65715    0.95862    0.02507    1.000
    O8       O        0.63305    0.89559    0.25687    1.000
    O9       O        0.68868    0.93881    0.66237    1.000
    Co4      Co       0.65074    0.03570    0.15008    1.000
    C13      C        0.79186    0.12112    0.28540    1.000
    C14      C        0.77985    0.12400    0.08520    1.000
    C15      C        0.82133    0.16955    0.96654    1.000
    H4       H        0.81200    0.17180    0.81110    1.000
    C16      C        0.75438    0.06830    0.42300    1.000
    O10      O        0.70805    0.03187    0.35840    1.000
    O11      O        0.77108    0.07080    0.59020    1.000
    O12      O        0.72786    0.08321    0.99570    1.000
    Co5      Co       0.31741    0.36903    0.48341    1.000
    C17      C        0.45853    0.45445    0.61873    1.000
    C18      C        0.44652    0.45733    0.41853    1.000
    C19      C        0.48800    0.50288    0.29987    1.000
    H5       H        0.47867    0.50513    0.14443    1.000
    C20      C        0.42105    0.40163    0.75633    1.000
    O13      O        0.37472    0.36520    0.69173    1.000
    O14      O        0.43775    0.40413    0.92353    1.000
    O15      O        0.39453    0.41654    0.32903    1.000
    Co6      Co       0.98407    0.70237    0.81675    1.000
    C21      C        0.12519    0.78779    0.95207    1.000
    C22      C        0.11318    0.79067    0.75187    1.000
    C23      C        0.15466    0.83622    0.63321    1.000
    H6       H        0.14533    0.83847    0.47777    1.000
    C24      C        0.08771    0.73497    0.08967    1.000
    O16      O        0.04138    0.69854    0.02507    1.000
    O17      O        0.10441    0.73747    0.25687    1.000
    O18      O        0.06119    0.74988    0.66237    1.000
    Co7      Co       0.96430    0.61504    0.15008    1.000
    C25      C        0.87888    0.67074    0.28540    1.000
    C26      C        0.87600    0.65585    0.08520    1.000
    C27      C        0.83045    0.65178    0.96654    1.000
    H7       H        0.82820    0.64020    0.81110    1.000
    C28      C        0.93170    0.68608    0.42300    1.000
    O19      O        0.96813    0.67618    0.35840    1.000
    O20      O        0.92920    0.70028    0.59020    1.000
    O21      O        0.91679    0.64465    0.99570    1.000
    Co8      Co       0.63097    0.94837    0.48341    1.000
    C29      C        0.54555    0.00407    0.61873    1.000
    C30      C        0.54267    0.98918    0.41853    1.000
    C31      C        0.49712    0.98511    0.29987    1.000
    H8       H        0.49487    0.97353    0.14443    1.000
    C32      C        0.59837    0.01941    0.75633    1.000
    O22      O        0.63480    0.00951    0.69173    1.000
    O23      O        0.59587    0.03361    0.92353    1.000
    O24      O        0.58346    0.97798    0.32903    1.000
    Co9      Co       0.29763    0.28171    0.81675    1.000
    C33      C        0.21221    0.33741    0.95207    1.000
    C34      C        0.20933    0.32252    0.75187    1.000
    C35      C        0.16378    0.31845    0.63321    1.000
    H9       H        0.16153    0.30687    0.47777    1.000
    C36      C        0.26503    0.35275    0.08967    1.000
    O25      O        0.30146    0.34285    0.02507    1.000
    O26      O        0.26253    0.36695    0.25687    1.000
    O27      O        0.25012    0.31132    0.66237    1.000
    Co10     Co       0.61504    0.65074    0.84992    1.000
    C37      C        0.67074    0.79186    0.71460    1.000
    C38      C        0.65585    0.77985    0.91480    1.000
    C39      C        0.65178    0.82133    0.03346    1.000
    H10      H        0.64020    0.81200    0.18890    1.000
    C40      C        0.68608    0.75438    0.57700    1.000
    O28      O        0.67618    0.70805    0.64160    1.000
    O29      O        0.70028    0.77108    0.40980    1.000
    O30      O        0.64465    0.72786    0.00430    1.000
    Co11     Co       0.28171    0.98407    0.18325    1.000
    C41      C        0.33741    0.12519    0.04793    1.000
    C42      C        0.32252    0.11318    0.24813    1.000
    C43      C        0.31845    0.15466    0.36679    1.000
    H11      H        0.30687    0.14533    0.52223    1.000
    C44      C        0.35275    0.08771    0.91033    1.000
    O31      O        0.34285    0.04138    0.97493    1.000
    O32      O        0.36695    0.10441    0.74313    1.000
    O33      O        0.31132    0.06119    0.33763    1.000
    Co12     Co       0.94837    0.31741    0.51659    1.000
    C45      C        0.00407    0.45853    0.38127    1.000
    C46      C        0.98918    0.44652    0.58147    1.000
    C47      C        0.98511    0.48800    0.70013    1.000
    H12      H        0.97353    0.47867    0.85557    1.000
    C48      C        0.01941    0.42105    0.24367    1.000
    O34      O        0.00951    0.37472    0.30827    1.000
    O35      O        0.03361    0.43775    0.07647    1.000
    O36      O        0.97798    0.39453    0.67097    1.000
    Co13     Co       0.34926    0.96430    0.84992    1.000
    C49      C        0.20814    0.87888    0.71460    1.000
    C50      C        0.22015    0.87600    0.91480    1.000
    C51      C        0.17867    0.83045    0.03346    1.000
    H13      H        0.18800    0.82820    0.18890    1.000
    C52      C        0.24562    0.93170    0.57700    1.000
    O37      O        0.29195    0.96813    0.64160    1.000
    O38      O        0.22892    0.92920    0.40980    1.000
    O39      O        0.27214    0.91679    0.00430    1.000
    Co14     Co       0.01593    0.29763    0.18325    1.000
    C53      C        0.87481    0.21221    0.04793    1.000
    C54      C        0.88682    0.20933    0.24813    1.000
    C55      C        0.84534    0.16378    0.36679    1.000
    H14      H        0.85467    0.16153    0.52223    1.000
    C56      C        0.91229    0.26503    0.91033    1.000
    O40      O        0.95862    0.30146    0.97493    1.000
    O41      O        0.89559    0.26253    0.74313    1.000
    O42      O        0.93881    0.25012    0.33763    1.000
    Co15     Co       0.68259    0.63097    0.51659    1.000
    C57      C        0.54147    0.54555    0.38127    1.000
    C58      C        0.55348    0.54267    0.58147    1.000
    C59      C        0.51200    0.49712    0.70013    1.000
    H15      H        0.52133    0.49487    0.85557    1.000
    C60      C        0.57895    0.59837    0.24367    1.000
    O43      O        0.62528    0.63480    0.30827    1.000
    O44      O        0.56225    0.59587    0.07647    1.000
    O45      O        0.60547    0.58346    0.67097    1.000
    Co16     Co       0.03570    0.38496    0.84992    1.000
    C61      C        0.12112    0.32926    0.71460    1.000
    C62      C        0.12400    0.34415    0.91480    1.000
    C63      C        0.16955    0.34822    0.03346    1.000
    H16      H        0.17180    0.35980    0.18890    1.000
    C64      C        0.06830    0.31392    0.57700    1.000
    O46      O        0.03187    0.32382    0.64160    1.000
    O47      O        0.07080    0.29972    0.40980    1.000
    O48      O        0.08321    0.35535    0.00430    1.000
    Co17     Co       0.70237    0.71829    0.18325    1.000
    C65      C        0.78779    0.66259    0.04793    1.000
    C66      C        0.79067    0.67748    0.24813    1.000
    C67      C        0.83622    0.68155    0.36679    1.000
    H17      H        0.83847    0.69313    0.52223    1.000
    C68      C        0.73497    0.64725    0.91033    1.000
    O49      O        0.69854    0.65715    0.97493    1.000
    O50      O        0.73747    0.63305    0.74313    1.000
    O51      O        0.74988    0.68868    0.33763    1.000
    Co18     Co       0.36903    0.05163    0.51659    1.000
    C69      C        0.45445    0.99593    0.38127    1.000
    C70      C        0.45733    0.01082    0.58147    1.000
    C71      C        0.50288    0.01489    0.70013    1.000
    H18      H        0.50513    0.02647    0.85557    1.000
    C72      C        0.40163    0.98059    0.24367    1.000
    O52      O        0.36520    0.99049    0.30827    1.000
    O53      O        0.40413    0.96639    0.07647    1.000
    O54      O        0.41654    0.02202    0.67097    1.000
