# CIF file generated by openbabel 3.1.0, see https://openbabel.org
data_I
_chemical_name_common 'image0'
_cell_length_a 7.3236
_cell_length_b 7.3236
_cell_length_c 8.318
_cell_angle_alpha 90
_cell_angle_beta 90
_cell_angle_gamma 120
_space_group_name_H-M_alt 'P 1'
_space_group_name_Hall 'P 1'
loop_
    _symmetry_equiv_pos_as_xyz
    x,y,z
loop_
    _atom_site_label
    _atom_site_type_symbol
    _atom_site_fract_x
    _atom_site_fract_y
    _atom_site_fract_z
    _atom_site_occupancy
    O1       O        0.10827    0.69447    0.10444    1.000
    O2       O        0.30553    0.41380    0.10444    1.000
    O3       O        0.58620    0.89173    0.10444    1.000
    O4       O        0.89173    0.30553    0.60444    1.000
    O5       O        0.69447    0.58620    0.60444    1.000
    O6       O        0.41380    0.10827    0.60444    1.000
    O7       O        0.69447    0.10827    0.89556    1.000
    O8       O        0.41380    0.30553    0.89556    1.000
    O9       O        0.89173    0.58620    0.89556    1.000
    O10      O        0.30553    0.89173    0.39556    1.000
    O11      O        0.58620    0.69447    0.39556    1.000
    O12      O        0.10827    0.41380    0.39556    1.000
    Fe1      Fe       0.33333    0.66667    0.25000    1.000
    Fe2      Fe       0.66667    0.33333    0.75000    1.000
    C1       C        0.00000    0.56450    0.00000    1.000
    H1       H        0.00000    0.41100    0.00000    1.000
    C2       C        0.43550    0.43550    0.00000    1.000
    H2       H        0.58900    0.58900    0.00000    1.000
    C3       C        0.56450    0.00000    0.00000    1.000
    H3       H        0.41100    0.00000    0.00000    1.000
    C4       C        0.00000    0.43550    0.50000    1.000
    H4       H        0.00000    0.58900    0.50000    1.000
    C5       C        0.56450    0.56450    0.50000    1.000
    H5       H        0.41100    0.41100    0.50000    1.000
    C6       C        0.43550    0.00000    0.50000    1.000
    H6       H        0.58900    0.00000    0.50000    1.000
