# CIF file generated by openbabel 3.1.0, see https://openbabel.org
data_I
_chemical_name_common 'image0'
_cell_length_a 9.9493
_cell_length_b 14.0796
_cell_length_c 19.906
_cell_angle_alpha 90
_cell_angle_beta 101.585
_cell_angle_gamma 90
_space_group_name_H-M_alt 'P 1'
_space_group_name_Hall 'P 1'
loop_
    _symmetry_equiv_pos_as_xyz
    x,y,z
loop_
    _atom_site_label
    _atom_site_type_symbol
    _atom_site_fract_x
    _atom_site_fract_y
    _atom_site_fract_z
    _atom_site_occupancy
    Ag1      Ag       0.61117    0.02239    0.45144    1.000
    Ag2      Ag       0.61242    0.14922    0.27907    1.000
    Ag3      Ag       0.93291    0.12975    0.63471    1.000
    S1       S        0.78020    0.01640    0.56020    1.000
    S2       S        0.76420    0.01870    0.35270    1.000
    N1       N        0.58480    0.93130    0.61750    1.000
    N2       N        0.57920    0.86880    0.66960    1.000
    N3       N        0.69820    0.84180    0.69600    1.000
    N4       N        0.78550    0.88590    0.66290    1.000
    N5       N        0.85270    0.85210    0.30620    1.000
    N6       N        0.79880    0.77830    0.26660    1.000
    N7       N        0.66830    0.78960    0.24580    1.000
    N8       N        0.63690    0.87360    0.27200    1.000
    C1       C        0.70920    0.94270    0.61400    1.000
    C2       C        0.93100    0.86730    0.68380    1.000
    H1       H        0.94640    0.82240    0.72080    1.000
    H2       H        0.97840    0.92550    0.69860    1.000
    H3       H        0.96530    0.84180    0.64570    1.000
    C3       C        0.75050    0.91010    0.31080    1.000
    C4       C        0.49660    0.90800    0.26100    1.000
    H4       H        0.43800    0.86620    0.23000    1.000
    H5       H        0.46690    0.91000    0.30390    1.000
    H6       H        0.49210    0.97070    0.24160    1.000
    Ag4      Ag       0.88883    0.52239    0.04856    1.000
    Ag5      Ag       0.88758    0.64922    0.22093    1.000
    Ag6      Ag       0.56709    0.62975    0.86529    1.000
    S3       S        0.71980    0.51640    0.93980    1.000
    S4       S        0.73580    0.51870    0.14730    1.000
    N9       N        0.91520    0.43130    0.88250    1.000
    N10      N        0.92080    0.36880    0.83040    1.000
    N11      N        0.80180    0.34180    0.80400    1.000
    N12      N        0.71450    0.38590    0.83710    1.000
    N13      N        0.64730    0.35210    0.19380    1.000
    N14      N        0.70120    0.27830    0.23340    1.000
    N15      N        0.83170    0.28960    0.25420    1.000
    N16      N        0.86310    0.37360    0.22800    1.000
    C5       C        0.79080    0.44270    0.88600    1.000
    C6       C        0.56900    0.36730    0.81620    1.000
    H7       H        0.55360    0.32240    0.77920    1.000
    H8       H        0.52160    0.42550    0.80140    1.000
    H9       H        0.53470    0.34180    0.85430    1.000
    C7       C        0.74950    0.41010    0.18920    1.000
    C8       C        0.00340    0.40800    0.23900    1.000
    H10      H        0.06200    0.36620    0.27000    1.000
    H11      H        0.03310    0.41000    0.19610    1.000
    H12      H        0.00790    0.47070    0.25840    1.000
    Ag7      Ag       0.38883    0.97761    0.54856    1.000
    Ag8      Ag       0.38758    0.85078    0.72093    1.000
    Ag9      Ag       0.06709    0.87025    0.36529    1.000
    S5       S        0.21980    0.98360    0.43980    1.000
    S6       S        0.23580    0.98130    0.64730    1.000
    N17      N        0.41520    0.06870    0.38250    1.000
    N18      N        0.42080    0.13120    0.33040    1.000
    N19      N        0.30180    0.15820    0.30400    1.000
    N20      N        0.21450    0.11410    0.33710    1.000
    N21      N        0.14730    0.14790    0.69380    1.000
    N22      N        0.20120    0.22170    0.73340    1.000
    N23      N        0.33170    0.21040    0.75420    1.000
    N24      N        0.36310    0.12640    0.72800    1.000
    C9       C        0.29080    0.05730    0.38600    1.000
    C10      C        0.06900    0.13270    0.31620    1.000
    H13      H        0.05360    0.17760    0.27920    1.000
    H14      H        0.02160    0.07450    0.30140    1.000
    H15      H        0.03470    0.15820    0.35430    1.000
    C11      C        0.24950    0.08990    0.68920    1.000
    C12      C        0.50340    0.09200    0.73900    1.000
    H16      H        0.56200    0.13380    0.77000    1.000
    H17      H        0.53310    0.09000    0.69610    1.000
    H18      H        0.50790    0.02930    0.75840    1.000
    Ag10     Ag       0.11117    0.47761    0.95144    1.000
    Ag11     Ag       0.11242    0.35078    0.77907    1.000
    Ag12     Ag       0.43291    0.37025    0.13471    1.000
    S7       S        0.28020    0.48360    0.06020    1.000
    S8       S        0.26420    0.48130    0.85270    1.000
    N25      N        0.08480    0.56870    0.11750    1.000
    N26      N        0.07920    0.63120    0.16960    1.000
    N27      N        0.19820    0.65820    0.19600    1.000
    N28      N        0.28550    0.61410    0.16290    1.000
    N29      N        0.35270    0.64790    0.80620    1.000
    N30      N        0.29880    0.72170    0.76660    1.000
    N31      N        0.16830    0.71040    0.74580    1.000
    N32      N        0.13690    0.62640    0.77200    1.000
    C13      C        0.20920    0.55730    0.11400    1.000
    C14      C        0.43100    0.63270    0.18380    1.000
    H19      H        0.44640    0.67760    0.22080    1.000
    H20      H        0.47840    0.57450    0.19860    1.000
    H21      H        0.46530    0.65820    0.14570    1.000
    C15      C        0.25050    0.58990    0.81080    1.000
    C16      C        0.99660    0.59200    0.76100    1.000
    H22      H        0.93800    0.63380    0.73000    1.000
    H23      H        0.96690    0.59000    0.80390    1.000
    H24      H        0.99210    0.52930    0.74160    1.000
