# CIF file generated by openbabel 3.1.0, see https://openbabel.org
data_I
_chemical_name_common 'image0'
_cell_length_a 22.0058
_cell_length_b 22.0058
_cell_length_c 72.831
_cell_angle_alpha 90
_cell_angle_beta 90
_cell_angle_gamma 90
_space_group_name_H-M_alt 'P 1'
_space_group_name_Hall 'P 1'
loop_
    _symmetry_equiv_pos_as_xyz
    x,y,z
loop_
    _atom_site_label
    _atom_site_type_symbol
    _atom_site_fract_x
    _atom_site_fract_y
    _atom_site_fract_z
    _atom_site_occupancy
    Co1      Co       0.47966    0.90163    0.50949    1.000
    Co2      Co       0.40162    0.02015    0.50163    1.000
    Co3      Co       0.62008    0.89051    0.53540    1.000
    Co4      Co       0.39029    0.87943    0.47578    1.000
    O1       O        0.39517    0.92908    0.50039    1.000
    H1       H        0.36310    0.91460    0.50910    1.000
    O2       O        0.57229    0.89401    0.51127    1.000
    H2       H        0.58710    0.86170    0.50270    1.000
    O3       O        0.46628    0.92488    0.53717    1.000
    O4       O        0.54598    0.89290    0.55257    1.000
    O5       O        0.42723    0.03632    0.47423    1.000
    O6       O        0.70132    0.89048    0.52077    1.000
    O7       O        0.39296    0.79917    0.49040    1.000
    O8       O        0.68580    0.95522    0.49666    1.000
    N1       N        0.29262    0.87890    0.47531    1.000
    N2       N        0.17329    0.89888    0.70081    1.000
    N3       N        0.37590    0.20597    0.53586    1.000
    C1       C        0.71830    0.91920    0.50705    1.000
    C2       C        0.42280    0.78100    0.50438    1.000
    C3       C        0.41350    0.71720    0.50906    1.000
    C4       C        0.49060    0.90730    0.55174    1.000
    C5       C        0.41300    0.00620    0.45937    1.000
    C6       C        0.42290    0.63560    0.53190    1.000
    H3       H        0.43390    0.62360    0.54400    1.000
    C7       C        0.38640    0.33280    0.53120    1.000
    C8       C        0.24710    0.90480    0.66893    1.000
    C9       C        0.34920    0.29960    0.52054    1.000
    H4       H        0.33010    0.31840    0.51030    1.000
    C10      C        0.42240    0.30230    0.54327    1.000
    H5       H        0.45100    0.32320    0.55070    1.000
    C11      C        0.26250    0.85290    0.48997    1.000
    H6       H        0.28630    0.83460    0.49930    1.000
    C12      C        0.48326    0.92843    0.58599    1.000
    H7       H        0.52530    0.93810    0.58660    1.000
    C13      C        0.45627    0.91560    0.56918    1.000
    C14      C        0.39476    0.90150    0.56834    1.000
    H8       H        0.37630    0.89270    0.55690    1.000
    C15      C        0.36024    0.90024    0.58432    1.000
    H9       H        0.31820    0.89060    0.58380    1.000
    C16      C        0.38723    0.91307    0.60113    1.000
    C17      C        0.44874    0.92717    0.60197    1.000
    H10      H        0.46720    0.93590    0.61350    1.000
    C18      C        0.25870    0.90260    0.46226    1.000
    H11      H        0.27770    0.91990    0.45180    1.000
    C19      C        0.41991    0.14067    0.42564    1.000
    H12      H        0.42540    0.18350    0.42580    1.000
    C20      C        0.41629    0.10853    0.44203    1.000
    H13      H        0.41930    0.12940    0.45340    1.000
    C21      C        0.40821    0.04589    0.44176    1.000
    C22      C        0.40375    0.01539    0.42510    1.000
    H14      H        0.39820    0.97260    0.42490    1.000
    C23      C        0.40740    0.04753    0.40871    1.000
    H15      H        0.40430    0.02670    0.39730    1.000
    C24      C        0.41544    0.11017    0.40898    1.000
    C25      C        0.20280    0.85170    0.49182    1.000
    H16      H        0.18500    0.83260    0.50220    1.000
    C26      C        0.16550    0.87850    0.47845    1.000
    C27      C        0.33710    0.23480    0.52426    1.000
    H17      H        0.30380    0.21420    0.51880    1.000
    C28      C        0.37820    0.61430    0.50140    1.000
    H18      H        0.36050    0.58720    0.49280    1.000
    C29      C        0.40680    0.48430    0.50761    1.000
    H19      H        0.41790    0.50030    0.49600    1.000
    C30      C        0.37740    0.50730    0.54005    1.000
    H20      H        0.37030    0.53480    0.54990    1.000
    C31      C        0.37590    0.44290    0.54314    1.000
    H21      H        0.36760    0.42760    0.55510    1.000
    C32      C        0.40660    0.42040    0.51078    1.000
    H22      H        0.41870    0.39200    0.50170    1.000
    C33      C        0.19620    0.90270    0.46355    1.000
    H23      H        0.17330    0.92010    0.45380    1.000
    C34      C        0.39483    0.15812    0.35961    1.000
    H24      H        0.38380    0.13920    0.34840    1.000
    C35      C        0.40820    0.21984    0.36001    1.000
    C36      C        0.42440    0.24751    0.37645    1.000
    H25      H        0.43350    0.28970    0.37670    1.000
    C37      C        0.42720    0.21350    0.39250    1.000
    H26      H        0.43820    0.23240    0.40370    1.000
    C38      C        0.41380    0.15170    0.39211    1.000
    C39      C        0.39770    0.12406    0.37566    1.000
    H27      H        0.38850    0.08190    0.37540    1.000
    C40      C        0.38590    0.67770    0.49720    1.000
    H28      H        0.37120    0.69270    0.48580    1.000
    C41      C        0.39820    0.59280    0.51916    1.000
    O9       O        0.39471    0.95470    0.45821    1.000
    C42      C        0.41620    0.23940    0.54435    1.000
    H29      H        0.44410    0.21860    0.55210    1.000
    C43      C        0.41384    0.35142    0.32592    1.000
    H30      H        0.42290    0.39360    0.32600    1.000
    C44      C        0.41800    0.31797    0.34206    1.000
    H31      H        0.42990    0.33730    0.35320    1.000
    C45      C        0.40480    0.25620    0.34197    1.000
    C46      C        0.38740    0.22788    0.32573    1.000
    H32      H        0.37840    0.18570    0.32570    1.000
    C47      C        0.38330    0.26134    0.30960    1.000
    H33      H        0.37140    0.24200    0.29850    1.000
    N4       N        0.39645    0.32311    0.30969    1.000
    O10      O        0.45575    0.81267    0.51370    1.000
    C48      C        0.19020    0.87580    0.66877    1.000
    H34      H        0.17520    0.85800    0.65780    1.000
    C49      C        0.43050    0.69520    0.52614    1.000
    H35      H        0.44870    0.72290    0.53450    1.000
    C50      C        0.22870    0.92200    0.70038    1.000
    H36      H        0.24540    0.93530    0.71170    1.000
    C51      C        0.26430    0.92850    0.68503    1.000
    H37      H        0.30170    0.95000    0.68590    1.000
    C52      C        0.15590    0.87330    0.68473    1.000
    H38      H        0.11820    0.85240    0.68440    1.000
    C53      C        0.32470    0.86220    0.64802    1.000
    H39      H        0.32740    0.82850    0.65610    1.000
    C54      C        0.28720    0.91110    0.65234    1.000
    C55      C        0.28330    0.96040    0.64048    1.000
    H40      H        0.25770    0.99380    0.64340    1.000
    C56      C        0.31680    0.96090    0.62429    1.000
    H41      H        0.31410    0.99460    0.61620    1.000
    C57      C        0.35420    0.91200    0.61997    1.000
    C58      C        0.35810    0.86270    0.63184    1.000
    H42      H        0.38370    0.82930    0.62890    1.000
    C59      C        0.80250    0.90434    0.48314    1.000
    H43      H        0.77300    0.90170    0.47360    1.000
    C60      C        0.86390    0.89870    0.47901    1.000
    H44      H        0.87640    0.89220    0.46670    1.000
    C61      C        0.90690    0.90260    0.49292    1.000
    C62      C        0.88860    0.91210    0.51096    1.000
    H45      H        0.91800    0.91470    0.52050    1.000
    C63      C        0.82720    0.91770    0.51508    1.000
    H46      H        0.81460    0.92420    0.52740    1.000
    C64      C        0.78410    0.91380    0.50117    1.000
    C65      C        0.07720    0.87497    0.49989    1.000
    H47      H        0.10430    0.86300    0.50940    1.000
    C66      C        0.09930    0.88570    0.48231    1.000
    C67      C        0.05970    0.90330    0.46840    1.000
    H48      H        0.07480    0.91060    0.45640    1.000
    C68      C        0.99810    0.91000    0.47209    1.000
    H49      H        0.97110    0.92200    0.46260    1.000
    C69      C        0.97610    0.89920    0.48968    1.000
    C70      C        0.01560    0.88170    0.50358    1.000
    H50      H        0.00060    0.87430    0.51560    1.000
    C71      C        0.38860    0.52770    0.52364    1.000
    C72      C        0.38680    0.40250    0.52859    1.000
    C73      C        0.16240    0.93490    0.68808    1.000
    H51      H        0.12920    0.96200    0.68970    1.000
    C74      C        0.22250    0.86520    0.69885    1.000
    H52      H        0.23220    0.83760    0.70840    1.000
    C75      C        0.26160    0.86700    0.68355    1.000
    H53      H        0.29740    0.84280    0.68320    1.000
    C76      C        0.19490    0.93900    0.67162    1.000
    H54      H        0.18110    0.96550    0.66220    1.000
    C77      C        0.20110    0.93160    0.47912    1.000
    H55      H        0.18210    0.96930    0.48180    1.000
    C78      C        0.20330    0.82560    0.48114    1.000
    H56      H        0.18760    0.79080    0.48720    1.000
    C79      C        0.26190    0.93040    0.47611    1.000
    H57      H        0.28300    0.96770    0.47450    1.000
    C80      C        0.26050    0.82580    0.47504    1.000
    H58      H        0.27860    0.78950    0.47060    1.000
    C81      C        0.33360    0.49770    0.52627    1.000
    H59      H        0.29670    0.52010    0.52640    1.000
    C82      C        0.44260    0.49500    0.52350    1.000
    H60      H        0.48020    0.51550    0.52170    1.000
    C83      C        0.44180    0.43240    0.52597    1.000
    H61      H        0.47870    0.41010    0.52590    1.000
    C84      C        0.33280    0.43510    0.52874    1.000
    H62      H        0.29520    0.41460    0.53050    1.000
    C85      C        0.30240    0.87880    0.61901    1.000
    H63      H        0.28890    0.86140    0.60780    1.000
    C86      C        0.26560    0.87030    0.63747    1.000
    H64      H        0.23320    0.84220    0.63890    1.000
    C87      C        0.33300    0.94620    0.65023    1.000
    H65      H        0.34420    0.97260    0.66000    1.000
    C88      C        0.36710    0.94690    0.63405    1.000
    H66      H        0.40090    0.97360    0.63320    1.000
    C89      C        0.81680    0.86160    0.50865    1.000
    H67      H        0.79740    0.83270    0.51640    1.000
    C90      C        0.81490    0.95730    0.49081    1.000
    H68      H        0.79490    0.99350    0.48720    1.000
    C91      C        0.87300    0.94780    0.48602    1.000
    H69      H        0.89100    0.97440    0.47730    1.000
    C92      C        0.87630    0.85660    0.50394    1.000
    H70      H        0.89870    0.82210    0.50790    1.000
    Co5      Co       0.97966    0.40163    0.00949    1.000
    Co6      Co       0.90162    0.52015    0.00163    1.000
    Co7      Co       0.12008    0.39051    0.03540    1.000
    Co8      Co       0.89029    0.37943    0.97578    1.000
    O11      O        0.89517    0.42908    0.00039    1.000
    H71      H        0.86310    0.41460    0.00910    1.000
    O12      O        0.07229    0.39401    0.01127    1.000
    H72      H        0.08710    0.36170    0.00270    1.000
    O13      O        0.96628    0.42488    0.03717    1.000
    O14      O        0.04598    0.39290    0.05257    1.000
    O15      O        0.92723    0.53632    0.97423    1.000
    O16      O        0.20132    0.39048    0.02077    1.000
    O17      O        0.89296    0.29917    0.99040    1.000
    O18      O        0.18580    0.45522    0.99666    1.000
    N5       N        0.79262    0.37890    0.97531    1.000
    N6       N        0.67329    0.39888    0.20081    1.000
    N7       N        0.87590    0.70597    0.03586    1.000
    C93      C        0.21830    0.41920    0.00705    1.000
    C94      C        0.92280    0.28100    0.00438    1.000
    C95      C        0.91350    0.21720    0.00906    1.000
    C96      C        0.99060    0.40730    0.05174    1.000
    C97      C        0.91300    0.50620    0.95937    1.000
    C98      C        0.92290    0.13560    0.03190    1.000
    H73      H        0.93390    0.12360    0.04400    1.000
    C99      C        0.88640    0.83280    0.03120    1.000
    C100     C        0.74710    0.40480    0.16893    1.000
    C101     C        0.84920    0.79960    0.02054    1.000
    H74      H        0.83010    0.81840    0.01030    1.000
    C102     C        0.92240    0.80230    0.04327    1.000
    H75      H        0.95100    0.82320    0.05070    1.000
    C103     C        0.76250    0.35290    0.98997    1.000
    H76      H        0.78630    0.33460    0.99930    1.000
    C104     C        0.98326    0.42843    0.08599    1.000
    H77      H        0.02530    0.43810    0.08660    1.000
    C105     C        0.95627    0.41560    0.06918    1.000
    C106     C        0.89476    0.40150    0.06834    1.000
    H78      H        0.87630    0.39270    0.05690    1.000
    C107     C        0.86024    0.40024    0.08432    1.000
    H79      H        0.81820    0.39060    0.08380    1.000
    C108     C        0.88723    0.41307    0.10113    1.000
    C109     C        0.94874    0.42717    0.10197    1.000
    H80      H        0.96720    0.43590    0.11350    1.000
    C110     C        0.75870    0.40260    0.96226    1.000
    H81      H        0.77770    0.41990    0.95180    1.000
    C111     C        0.91991    0.64067    0.92564    1.000
    H82      H        0.92540    0.68350    0.92580    1.000
    C112     C        0.91629    0.60853    0.94203    1.000
    H83      H        0.91930    0.62940    0.95340    1.000
    C113     C        0.90821    0.54589    0.94176    1.000
    C114     C        0.90375    0.51539    0.92510    1.000
    H84      H        0.89820    0.47260    0.92490    1.000
    C115     C        0.90740    0.54753    0.90871    1.000
    H85      H        0.90430    0.52670    0.89730    1.000
    C116     C        0.91544    0.61017    0.90898    1.000
    C117     C        0.70280    0.35170    0.99182    1.000
    H86      H        0.68500    0.33260    0.00220    1.000
    C118     C        0.66550    0.37850    0.97845    1.000
    C119     C        0.83710    0.73480    0.02426    1.000
    H87      H        0.80380    0.71420    0.01880    1.000
    C120     C        0.87820    0.11430    0.00140    1.000
    H88      H        0.86050    0.08720    0.99280    1.000
    C121     C        0.90680    0.98430    0.00761    1.000
    H89      H        0.91790    0.00030    0.99600    1.000
    C122     C        0.87740    0.00730    0.04005    1.000
    H90      H        0.87030    0.03480    0.04990    1.000
    C123     C        0.87590    0.94290    0.04314    1.000
    H91      H        0.86760    0.92760    0.05510    1.000
    C124     C        0.90660    0.92040    0.01078    1.000
    H92      H        0.91870    0.89200    0.00170    1.000
    C125     C        0.69620    0.40270    0.96355    1.000
    H93      H        0.67330    0.42010    0.95380    1.000
    C126     C        0.89483    0.65812    0.85961    1.000
    H94      H        0.88380    0.63920    0.84840    1.000
    C127     C        0.90820    0.71984    0.86001    1.000
    C128     C        0.92440    0.74751    0.87645    1.000
    H95      H        0.93350    0.78970    0.87670    1.000
    C129     C        0.92720    0.71350    0.89250    1.000
    H96      H        0.93820    0.73240    0.90370    1.000
    C130     C        0.91380    0.65170    0.89211    1.000
    C131     C        0.89770    0.62406    0.87566    1.000
    H97      H        0.88850    0.58190    0.87540    1.000
    C132     C        0.88590    0.17770    0.99720    1.000
    H98      H        0.87120    0.19270    0.98580    1.000
    C133     C        0.89820    0.09280    0.01916    1.000
    O19      O        0.89471    0.45470    0.95821    1.000
    C134     C        0.91620    0.73940    0.04435    1.000
    H99      H        0.94410    0.71860    0.05210    1.000
    C135     C        0.91384    0.85142    0.82592    1.000
    H100     H        0.92290    0.89360    0.82600    1.000
    C136     C        0.91800    0.81797    0.84206    1.000
    H101     H        0.92990    0.83730    0.85320    1.000
    C137     C        0.90480    0.75620    0.84197    1.000
    C138     C        0.88740    0.72788    0.82573    1.000
    H102     H        0.87840    0.68570    0.82570    1.000
    C139     C        0.88330    0.76134    0.80960    1.000
    H103     H        0.87140    0.74200    0.79850    1.000
    N8       N        0.89645    0.82311    0.80969    1.000
    O20      O        0.95575    0.31267    0.01370    1.000
    C140     C        0.69020    0.37580    0.16877    1.000
    H104     H        0.67520    0.35800    0.15780    1.000
    C141     C        0.93050    0.19520    0.02614    1.000
    H105     H        0.94870    0.22290    0.03450    1.000
    C142     C        0.72870    0.42200    0.20038    1.000
    H106     H        0.74540    0.43530    0.21170    1.000
    C143     C        0.76430    0.42850    0.18503    1.000
    H107     H        0.80170    0.45000    0.18590    1.000
    C144     C        0.65590    0.37330    0.18473    1.000
    H108     H        0.61820    0.35240    0.18440    1.000
    C145     C        0.82470    0.36220    0.14802    1.000
    H109     H        0.82740    0.32850    0.15610    1.000
    C146     C        0.78720    0.41110    0.15234    1.000
    C147     C        0.78330    0.46040    0.14048    1.000
    H110     H        0.75770    0.49380    0.14340    1.000
    C148     C        0.81680    0.46090    0.12429    1.000
    H111     H        0.81410    0.49460    0.11620    1.000
    C149     C        0.85420    0.41200    0.11997    1.000
    C150     C        0.85810    0.36270    0.13184    1.000
    H112     H        0.88370    0.32930    0.12890    1.000
    C151     C        0.30250    0.40434    0.98314    1.000
    H113     H        0.27300    0.40170    0.97360    1.000
    C152     C        0.36390    0.39870    0.97901    1.000
    H114     H        0.37640    0.39220    0.96670    1.000
    C153     C        0.40690    0.40260    0.99292    1.000
    C154     C        0.38860    0.41210    0.01096    1.000
    H115     H        0.41800    0.41470    0.02050    1.000
    C155     C        0.32720    0.41770    0.01508    1.000
    H116     H        0.31460    0.42420    0.02740    1.000
    C156     C        0.28410    0.41380    0.00117    1.000
    C157     C        0.57720    0.37497    0.99989    1.000
    H117     H        0.60430    0.36300    0.00940    1.000
    C158     C        0.59930    0.38570    0.98231    1.000
    C159     C        0.55970    0.40330    0.96840    1.000
    H118     H        0.57480    0.41060    0.95640    1.000
    C160     C        0.49810    0.41000    0.97209    1.000
    H119     H        0.47110    0.42200    0.96260    1.000
    C161     C        0.47610    0.39920    0.98968    1.000
    C162     C        0.51560    0.38170    0.00358    1.000
    H120     H        0.50060    0.37430    0.01560    1.000
    C163     C        0.88860    0.02770    0.02364    1.000
    C164     C        0.88680    0.90250    0.02859    1.000
    C165     C        0.66240    0.43490    0.18808    1.000
    H121     H        0.62920    0.46200    0.18970    1.000
    C166     C        0.72250    0.36520    0.19885    1.000
    H122     H        0.73220    0.33760    0.20840    1.000
    C167     C        0.76160    0.36700    0.18355    1.000
    H123     H        0.79740    0.34280    0.18320    1.000
    C168     C        0.69490    0.43900    0.17162    1.000
    H124     H        0.68110    0.46550    0.16220    1.000
    C169     C        0.70110    0.43160    0.97912    1.000
    H125     H        0.68210    0.46930    0.98180    1.000
    C170     C        0.70330    0.32560    0.98114    1.000
    H126     H        0.68760    0.29080    0.98720    1.000
    C171     C        0.76190    0.43040    0.97611    1.000
    H127     H        0.78300    0.46770    0.97450    1.000
    C172     C        0.76050    0.32580    0.97504    1.000
    H128     H        0.77860    0.28950    0.97060    1.000
    C173     C        0.83360    0.99770    0.02627    1.000
    H129     H        0.79670    0.02010    0.02640    1.000
    C174     C        0.94260    0.99500    0.02350    1.000
    H130     H        0.98020    0.01550    0.02170    1.000
    C175     C        0.94180    0.93240    0.02597    1.000
    H131     H        0.97870    0.91010    0.02590    1.000
    C176     C        0.83280    0.93510    0.02874    1.000
    H132     H        0.79520    0.91460    0.03050    1.000
    C177     C        0.80240    0.37880    0.11901    1.000
    H133     H        0.78890    0.36140    0.10780    1.000
    C178     C        0.76560    0.37030    0.13747    1.000
    H134     H        0.73320    0.34220    0.13890    1.000
    C179     C        0.83300    0.44620    0.15023    1.000
    H135     H        0.84420    0.47260    0.16000    1.000
    C180     C        0.86710    0.44690    0.13405    1.000
    H136     H        0.90090    0.47360    0.13320    1.000
    C181     C        0.31680    0.36160    0.00865    1.000
    H137     H        0.29740    0.33270    0.01640    1.000
    C182     C        0.31490    0.45730    0.99081    1.000
    H138     H        0.29490    0.49350    0.98720    1.000
    C183     C        0.37300    0.44780    0.98602    1.000
    H139     H        0.39100    0.47440    0.97730    1.000
    C184     C        0.37630    0.35660    0.00394    1.000
    H140     H        0.39870    0.32210    0.00790    1.000
    Co9      Co       0.02034    0.59837    0.00949    1.000
    Co10     Co       0.09838    0.47985    0.00163    1.000
    Co11     Co       0.87992    0.60949    0.03540    1.000
    Co12     Co       0.10971    0.62057    0.97578    1.000
    O21      O        0.10483    0.57092    0.00039    1.000
    H141     H        0.13690    0.58540    0.00910    1.000
    O22      O        0.92771    0.60599    0.01127    1.000
    H142     H        0.91290    0.63830    0.00270    1.000
    O23      O        0.03372    0.57512    0.03717    1.000
    O24      O        0.95402    0.60710    0.05257    1.000
    O25      O        0.07277    0.46368    0.97423    1.000
    O26      O        0.79868    0.60952    0.02077    1.000
    O27      O        0.10704    0.70083    0.99040    1.000
    O28      O        0.81420    0.54478    0.99666    1.000
    N9       N        0.20738    0.62110    0.97531    1.000
    N10      N        0.32671    0.60112    0.20081    1.000
    N11      N        0.12410    0.29403    0.03586    1.000
    C185     C        0.78170    0.58080    0.00705    1.000
    C186     C        0.07720    0.71900    0.00438    1.000
    C187     C        0.08650    0.78280    0.00906    1.000
    C188     C        0.00940    0.59270    0.05174    1.000
    C189     C        0.08700    0.49380    0.95937    1.000
    C190     C        0.07710    0.86440    0.03190    1.000
    H143     H        0.06610    0.87640    0.04400    1.000
    C191     C        0.11360    0.16720    0.03120    1.000
    C192     C        0.25290    0.59520    0.16893    1.000
    C193     C        0.15080    0.20040    0.02054    1.000
    H144     H        0.16990    0.18160    0.01030    1.000
    C194     C        0.07760    0.19770    0.04327    1.000
    H145     H        0.04900    0.17680    0.05070    1.000
    C195     C        0.23750    0.64710    0.98997    1.000
    H146     H        0.21370    0.66540    0.99930    1.000
    C196     C        0.01674    0.57157    0.08599    1.000
    H147     H        0.97470    0.56190    0.08660    1.000
    C197     C        0.04373    0.58440    0.06918    1.000
    C198     C        0.10524    0.59850    0.06834    1.000
    H148     H        0.12370    0.60730    0.05690    1.000
    C199     C        0.13976    0.59976    0.08432    1.000
    H149     H        0.18180    0.60940    0.08380    1.000
    C200     C        0.11277    0.58693    0.10113    1.000
    C201     C        0.05126    0.57283    0.10197    1.000
    H150     H        0.03280    0.56410    0.11350    1.000
    C202     C        0.24130    0.59740    0.96226    1.000
    H151     H        0.22230    0.58010    0.95180    1.000
    C203     C        0.08009    0.35933    0.92564    1.000
    H152     H        0.07460    0.31650    0.92580    1.000
    C204     C        0.08371    0.39147    0.94203    1.000
    H153     H        0.08070    0.37060    0.95340    1.000
    C205     C        0.09179    0.45411    0.94176    1.000
    C206     C        0.09625    0.48461    0.92510    1.000
    H154     H        0.10180    0.52740    0.92490    1.000
    C207     C        0.09260    0.45247    0.90871    1.000
    H155     H        0.09570    0.47330    0.89730    1.000
    C208     C        0.08456    0.38983    0.90898    1.000
    C209     C        0.29720    0.64830    0.99182    1.000
    H156     H        0.31500    0.66740    0.00220    1.000
    C210     C        0.33450    0.62150    0.97845    1.000
    C211     C        0.16290    0.26520    0.02426    1.000
    H157     H        0.19620    0.28580    0.01880    1.000
    C212     C        0.12180    0.88570    0.00140    1.000
    H158     H        0.13950    0.91280    0.99280    1.000
    C213     C        0.09320    0.01570    0.00761    1.000
    H159     H        0.08210    0.99970    0.99600    1.000
    C214     C        0.12260    0.99270    0.04005    1.000
    H160     H        0.12970    0.96520    0.04990    1.000
    C215     C        0.12410    0.05710    0.04314    1.000
    H161     H        0.13240    0.07240    0.05510    1.000
    C216     C        0.09340    0.07960    0.01078    1.000
    H162     H        0.08130    0.10800    0.00170    1.000
    C217     C        0.30380    0.59730    0.96355    1.000
    H163     H        0.32670    0.57990    0.95380    1.000
    C218     C        0.10517    0.34188    0.85961    1.000
    H164     H        0.11620    0.36080    0.84840    1.000
    C219     C        0.09180    0.28016    0.86001    1.000
    C220     C        0.07560    0.25249    0.87645    1.000
    H165     H        0.06650    0.21030    0.87670    1.000
    C221     C        0.07280    0.28650    0.89250    1.000
    H166     H        0.06180    0.26760    0.90370    1.000
    C222     C        0.08620    0.34830    0.89211    1.000
    C223     C        0.10230    0.37594    0.87566    1.000
    H167     H        0.11150    0.41810    0.87540    1.000
    C224     C        0.11410    0.82230    0.99720    1.000
    H168     H        0.12880    0.80730    0.98580    1.000
    C225     C        0.10180    0.90720    0.01916    1.000
    O29      O        0.10529    0.54530    0.95821    1.000
    C226     C        0.08380    0.26060    0.04435    1.000
    H169     H        0.05590    0.28140    0.05210    1.000
    C227     C        0.08616    0.14858    0.82592    1.000
    H170     H        0.07710    0.10640    0.82600    1.000
    C228     C        0.08200    0.18203    0.84206    1.000
    H171     H        0.07010    0.16270    0.85320    1.000
    C229     C        0.09520    0.24380    0.84197    1.000
    C230     C        0.11260    0.27212    0.82573    1.000
    H172     H        0.12160    0.31430    0.82570    1.000
    C231     C        0.11670    0.23866    0.80960    1.000
    H173     H        0.12860    0.25800    0.79850    1.000
    N12      N        0.10355    0.17689    0.80969    1.000
    O30      O        0.04425    0.68733    0.01370    1.000
    C232     C        0.30980    0.62420    0.16877    1.000
    H174     H        0.32480    0.64200    0.15780    1.000
    C233     C        0.06950    0.80480    0.02614    1.000
    H175     H        0.05130    0.77710    0.03450    1.000
    C234     C        0.27130    0.57800    0.20038    1.000
    H176     H        0.25460    0.56470    0.21170    1.000
    C235     C        0.23570    0.57150    0.18503    1.000
    H177     H        0.19830    0.55000    0.18590    1.000
    C236     C        0.34410    0.62670    0.18473    1.000
    H178     H        0.38180    0.64760    0.18440    1.000
    C237     C        0.17530    0.63780    0.14802    1.000
    H179     H        0.17260    0.67150    0.15610    1.000
    C238     C        0.21280    0.58890    0.15234    1.000
    C239     C        0.21670    0.53960    0.14048    1.000
    H180     H        0.24230    0.50620    0.14340    1.000
    C240     C        0.18320    0.53910    0.12429    1.000
    H181     H        0.18590    0.50540    0.11620    1.000
    C241     C        0.14580    0.58800    0.11997    1.000
    C242     C        0.14190    0.63730    0.13184    1.000
    H182     H        0.11630    0.67070    0.12890    1.000
    C243     C        0.69750    0.59566    0.98314    1.000
    H183     H        0.72700    0.59830    0.97360    1.000
    C244     C        0.63610    0.60130    0.97901    1.000
    H184     H        0.62360    0.60780    0.96670    1.000
    C245     C        0.59310    0.59740    0.99292    1.000
    C246     C        0.61140    0.58790    0.01096    1.000
    H185     H        0.58200    0.58530    0.02050    1.000
    C247     C        0.67280    0.58230    0.01508    1.000
    H186     H        0.68540    0.57580    0.02740    1.000
    C248     C        0.71590    0.58620    0.00117    1.000
    C249     C        0.42280    0.62503    0.99989    1.000
    H187     H        0.39570    0.63700    0.00940    1.000
    C250     C        0.40070    0.61430    0.98231    1.000
    C251     C        0.44030    0.59670    0.96840    1.000
    H188     H        0.42520    0.58940    0.95640    1.000
    C252     C        0.50190    0.59000    0.97209    1.000
    H189     H        0.52890    0.57800    0.96260    1.000
    C253     C        0.52390    0.60080    0.98968    1.000
    C254     C        0.48440    0.61830    0.00358    1.000
    H190     H        0.49940    0.62570    0.01560    1.000
    C255     C        0.11140    0.97230    0.02364    1.000
    C256     C        0.11320    0.09750    0.02859    1.000
    C257     C        0.33760    0.56510    0.18808    1.000
    H191     H        0.37080    0.53800    0.18970    1.000
    C258     C        0.27750    0.63480    0.19885    1.000
    H192     H        0.26780    0.66240    0.20840    1.000
    C259     C        0.23840    0.63300    0.18355    1.000
    H193     H        0.20260    0.65720    0.18320    1.000
    C260     C        0.30510    0.56100    0.17162    1.000
    H194     H        0.31890    0.53450    0.16220    1.000
    C261     C        0.29890    0.56840    0.97912    1.000
    H195     H        0.31790    0.53070    0.98180    1.000
    C262     C        0.29670    0.67440    0.98114    1.000
    H196     H        0.31240    0.70920    0.98720    1.000
    C263     C        0.23810    0.56960    0.97611    1.000
    H197     H        0.21700    0.53230    0.97450    1.000
    C264     C        0.23950    0.67420    0.97504    1.000
    H198     H        0.22140    0.71050    0.97060    1.000
    C265     C        0.16640    0.00230    0.02627    1.000
    H199     H        0.20330    0.97990    0.02640    1.000
    C266     C        0.05740    0.00500    0.02350    1.000
    H200     H        0.01980    0.98450    0.02170    1.000
    C267     C        0.05820    0.06760    0.02597    1.000
    H201     H        0.02130    0.08990    0.02590    1.000
    C268     C        0.16720    0.06490    0.02874    1.000
    H202     H        0.20480    0.08540    0.03050    1.000
    C269     C        0.19760    0.62120    0.11901    1.000
    H203     H        0.21110    0.63860    0.10780    1.000
    C270     C        0.23440    0.62970    0.13747    1.000
    H204     H        0.26680    0.65780    0.13890    1.000
    C271     C        0.16700    0.55380    0.15023    1.000
    H205     H        0.15580    0.52740    0.16000    1.000
    C272     C        0.13290    0.55310    0.13405    1.000
    H206     H        0.09910    0.52640    0.13320    1.000
    C273     C        0.68320    0.63840    0.00865    1.000
    H207     H        0.70260    0.66730    0.01640    1.000
    C274     C        0.68510    0.54270    0.99081    1.000
    H208     H        0.70510    0.50650    0.98720    1.000
    C275     C        0.62700    0.55220    0.98602    1.000
    H209     H        0.60900    0.52560    0.97730    1.000
    C276     C        0.62370    0.64340    0.00394    1.000
    H210     H        0.60130    0.67790    0.00790    1.000
    Co13     Co       0.52034    0.09837    0.50949    1.000
    Co14     Co       0.59838    0.97985    0.50163    1.000
    Co15     Co       0.37992    0.10949    0.53540    1.000
    Co16     Co       0.60971    0.12057    0.47578    1.000
    O31      O        0.60483    0.07092    0.50039    1.000
    H211     H        0.63690    0.08540    0.50910    1.000
    O32      O        0.42771    0.10599    0.51127    1.000
    H212     H        0.41290    0.13830    0.50270    1.000
    O33      O        0.53372    0.07512    0.53717    1.000
    O34      O        0.45402    0.10710    0.55257    1.000
    O35      O        0.57277    0.96368    0.47423    1.000
    O36      O        0.29868    0.10952    0.52077    1.000
    O37      O        0.60704    0.20083    0.49040    1.000
    O38      O        0.31420    0.04478    0.49666    1.000
    N13      N        0.70738    0.12110    0.47531    1.000
    N14      N        0.82671    0.10112    0.70081    1.000
    N15      N        0.62410    0.79403    0.53586    1.000
    C277     C        0.28170    0.08080    0.50705    1.000
    C278     C        0.57720    0.21900    0.50438    1.000
    C279     C        0.58650    0.28280    0.50906    1.000
    C280     C        0.50940    0.09270    0.55174    1.000
    C281     C        0.58700    0.99380    0.45937    1.000
    C282     C        0.57710    0.36440    0.53190    1.000
    H213     H        0.56610    0.37640    0.54400    1.000
    C283     C        0.61360    0.66720    0.53120    1.000
    C284     C        0.75290    0.09520    0.66893    1.000
    C285     C        0.65080    0.70040    0.52054    1.000
    H214     H        0.66990    0.68160    0.51030    1.000
    C286     C        0.57760    0.69770    0.54327    1.000
    H215     H        0.54900    0.67680    0.55070    1.000
    C287     C        0.73750    0.14710    0.48997    1.000
    H216     H        0.71370    0.16540    0.49930    1.000
    C288     C        0.51674    0.07157    0.58599    1.000
    H217     H        0.47470    0.06190    0.58660    1.000
    C289     C        0.54373    0.08440    0.56918    1.000
    C290     C        0.60524    0.09850    0.56834    1.000
    H218     H        0.62370    0.10730    0.55690    1.000
    C291     C        0.63976    0.09976    0.58432    1.000
    H219     H        0.68180    0.10940    0.58380    1.000
    C292     C        0.61277    0.08693    0.60113    1.000
    C293     C        0.55126    0.07283    0.60197    1.000
    H220     H        0.53280    0.06410    0.61350    1.000
    C294     C        0.74130    0.09740    0.46226    1.000
    H221     H        0.72230    0.08010    0.45180    1.000
    C295     C        0.58009    0.85933    0.42564    1.000
    H222     H        0.57460    0.81650    0.42580    1.000
    C296     C        0.58371    0.89147    0.44203    1.000
    H223     H        0.58070    0.87060    0.45340    1.000
    C297     C        0.59179    0.95411    0.44176    1.000
    C298     C        0.59625    0.98461    0.42510    1.000
    H224     H        0.60180    0.02740    0.42490    1.000
    C299     C        0.59260    0.95247    0.40871    1.000
    H225     H        0.59570    0.97330    0.39730    1.000
    C300     C        0.58456    0.88983    0.40898    1.000
    C301     C        0.79720    0.14830    0.49182    1.000
    H226     H        0.81500    0.16740    0.50220    1.000
    C302     C        0.83450    0.12150    0.47845    1.000
    C303     C        0.66290    0.76520    0.52426    1.000
    H227     H        0.69620    0.78580    0.51880    1.000
    C304     C        0.62180    0.38570    0.50140    1.000
    H228     H        0.63950    0.41280    0.49280    1.000
    C305     C        0.59320    0.51570    0.50761    1.000
    H229     H        0.58210    0.49970    0.49600    1.000
    C306     C        0.62260    0.49270    0.54005    1.000
    H230     H        0.62970    0.46520    0.54990    1.000
    C307     C        0.62410    0.55710    0.54314    1.000
    H231     H        0.63240    0.57240    0.55510    1.000
    C308     C        0.59340    0.57960    0.51078    1.000
    H232     H        0.58130    0.60800    0.50170    1.000
    C309     C        0.80380    0.09730    0.46355    1.000
    H233     H        0.82670    0.07990    0.45380    1.000
    C310     C        0.60517    0.84188    0.35961    1.000
    H234     H        0.61620    0.86080    0.34840    1.000
    C311     C        0.59180    0.78016    0.36001    1.000
    C312     C        0.57560    0.75249    0.37645    1.000
    H235     H        0.56650    0.71030    0.37670    1.000
    C313     C        0.57280    0.78650    0.39250    1.000
    H236     H        0.56180    0.76760    0.40370    1.000
    C314     C        0.58620    0.84830    0.39211    1.000
    C315     C        0.60230    0.87594    0.37566    1.000
    H237     H        0.61150    0.91810    0.37540    1.000
    C316     C        0.61410    0.32230    0.49720    1.000
    H238     H        0.62880    0.30730    0.48580    1.000
    C317     C        0.60180    0.40720    0.51916    1.000
    O39      O        0.60529    0.04530    0.45821    1.000
    C318     C        0.58380    0.76060    0.54435    1.000
    H239     H        0.55590    0.78140    0.55210    1.000
    C319     C        0.58616    0.64858    0.32592    1.000
    H240     H        0.57710    0.60640    0.32600    1.000
    C320     C        0.58200    0.68203    0.34206    1.000
    H241     H        0.57010    0.66270    0.35320    1.000
    C321     C        0.59520    0.74380    0.34197    1.000
    C322     C        0.61260    0.77212    0.32573    1.000
    H242     H        0.62160    0.81430    0.32570    1.000
    C323     C        0.61670    0.73866    0.30960    1.000
    H243     H        0.62860    0.75800    0.29850    1.000
    N16      N        0.60355    0.67689    0.30969    1.000
    O40      O        0.54425    0.18733    0.51370    1.000
    C324     C        0.80980    0.12420    0.66877    1.000
    H244     H        0.82480    0.14200    0.65780    1.000
    C325     C        0.56950    0.30480    0.52614    1.000
    H245     H        0.55130    0.27710    0.53450    1.000
    C326     C        0.77130    0.07800    0.70038    1.000
    H246     H        0.75460    0.06470    0.71170    1.000
    C327     C        0.73570    0.07150    0.68503    1.000
    H247     H        0.69830    0.05000    0.68590    1.000
    C328     C        0.84410    0.12670    0.68473    1.000
    H248     H        0.88180    0.14760    0.68440    1.000
    C329     C        0.67530    0.13780    0.64802    1.000
    H249     H        0.67260    0.17150    0.65610    1.000
    C330     C        0.71280    0.08890    0.65234    1.000
    C331     C        0.71670    0.03960    0.64048    1.000
    H250     H        0.74230    0.00620    0.64340    1.000
    C332     C        0.68320    0.03910    0.62429    1.000
    H251     H        0.68590    0.00540    0.61620    1.000
    C333     C        0.64580    0.08800    0.61997    1.000
    C334     C        0.64190    0.13730    0.63184    1.000
    H252     H        0.61630    0.17070    0.62890    1.000
    C335     C        0.19750    0.09566    0.48314    1.000
    H253     H        0.22700    0.09830    0.47360    1.000
    C336     C        0.13610    0.10130    0.47901    1.000
    H254     H        0.12360    0.10780    0.46670    1.000
    C337     C        0.09310    0.09740    0.49292    1.000
    C338     C        0.11140    0.08790    0.51096    1.000
    H255     H        0.08200    0.08530    0.52050    1.000
    C339     C        0.17280    0.08230    0.51508    1.000
    H256     H        0.18540    0.07580    0.52740    1.000
    C340     C        0.21590    0.08620    0.50117    1.000
    C341     C        0.92280    0.12503    0.49989    1.000
    H257     H        0.89570    0.13700    0.50940    1.000
    C342     C        0.90070    0.11430    0.48231    1.000
    C343     C        0.94030    0.09670    0.46840    1.000
    H258     H        0.92520    0.08940    0.45640    1.000
    C344     C        0.00190    0.09000    0.47209    1.000
    H259     H        0.02890    0.07800    0.46260    1.000
    C345     C        0.02390    0.10080    0.48968    1.000
    C346     C        0.98440    0.11830    0.50358    1.000
    H260     H        0.99940    0.12570    0.51560    1.000
    C347     C        0.61140    0.47230    0.52364    1.000
    C348     C        0.61320    0.59750    0.52859    1.000
    C349     C        0.83760    0.06510    0.68808    1.000
    H261     H        0.87080    0.03800    0.68970    1.000
    C350     C        0.77750    0.13480    0.69885    1.000
    H262     H        0.76780    0.16240    0.70840    1.000
    C351     C        0.73840    0.13300    0.68355    1.000
    H263     H        0.70260    0.15720    0.68320    1.000
    C352     C        0.80510    0.06100    0.67162    1.000
    H264     H        0.81890    0.03450    0.66220    1.000
    C353     C        0.79890    0.06840    0.47912    1.000
    H265     H        0.81790    0.03070    0.48180    1.000
    C354     C        0.79670    0.17440    0.48114    1.000
    H266     H        0.81240    0.20920    0.48720    1.000
    C355     C        0.73810    0.06960    0.47611    1.000
    H267     H        0.71700    0.03230    0.47450    1.000
    C356     C        0.73950    0.17420    0.47504    1.000
    H268     H        0.72140    0.21050    0.47060    1.000
    C357     C        0.66640    0.50230    0.52627    1.000
    H269     H        0.70330    0.47990    0.52640    1.000
    C358     C        0.55740    0.50500    0.52350    1.000
    H270     H        0.51980    0.48450    0.52170    1.000
    C359     C        0.55820    0.56760    0.52597    1.000
    H271     H        0.52130    0.58990    0.52590    1.000
    C360     C        0.66720    0.56490    0.52874    1.000
    H272     H        0.70480    0.58540    0.53050    1.000
    C361     C        0.69760    0.12120    0.61901    1.000
    H273     H        0.71110    0.13860    0.60780    1.000
    C362     C        0.73440    0.12970    0.63747    1.000
    H274     H        0.76680    0.15780    0.63890    1.000
    C363     C        0.66700    0.05380    0.65023    1.000
    H275     H        0.65580    0.02740    0.66000    1.000
    C364     C        0.63290    0.05310    0.63405    1.000
    H276     H        0.59910    0.02640    0.63320    1.000
    C365     C        0.18320    0.13840    0.50865    1.000
    H277     H        0.20260    0.16730    0.51640    1.000
    C366     C        0.18510    0.04270    0.49081    1.000
    H278     H        0.20510    0.00650    0.48720    1.000
    C367     C        0.12700    0.05220    0.48602    1.000
    H279     H        0.10900    0.02560    0.47730    1.000
    C368     C        0.12370    0.14340    0.50394    1.000
    H280     H        0.10130    0.17790    0.50790    1.000
    Co17     Co       0.09837    0.97966    0.75949    1.000
    Co18     Co       0.97985    0.90162    0.75163    1.000
    Co19     Co       0.10949    0.12008    0.78540    1.000
    Co20     Co       0.12057    0.89029    0.72578    1.000
    O41      O        0.07092    0.89517    0.75039    1.000
    H281     H        0.08540    0.86310    0.75910    1.000
    O42      O        0.10599    0.07229    0.76127    1.000
    H282     H        0.13830    0.08710    0.75270    1.000
    O43      O        0.07512    0.96628    0.78717    1.000
    O44      O        0.10710    0.04598    0.80257    1.000
    O45      O        0.96368    0.92723    0.72423    1.000
    O46      O        0.10952    0.20132    0.77077    1.000
    O47      O        0.20083    0.89296    0.74040    1.000
    O48      O        0.04478    0.18580    0.74666    1.000
    N17      N        0.12110    0.79262    0.72531    1.000
    N18      N        0.10112    0.67329    0.95081    1.000
    N19      N        0.79403    0.87590    0.78586    1.000
    C369     C        0.08080    0.21830    0.75705    1.000
    C370     C        0.21900    0.92280    0.75438    1.000
    C371     C        0.28280    0.91350    0.75906    1.000
    C372     C        0.09270    0.99060    0.80174    1.000
    C373     C        0.99380    0.91300    0.70937    1.000
    C374     C        0.36440    0.92290    0.78190    1.000
    H283     H        0.37640    0.93390    0.79400    1.000
    C375     C        0.66720    0.88640    0.78120    1.000
    C376     C        0.09520    0.74710    0.91893    1.000
    C377     C        0.70040    0.84920    0.77054    1.000
    H284     H        0.68160    0.83010    0.76030    1.000
    C378     C        0.69770    0.92240    0.79327    1.000
    H285     H        0.67680    0.95100    0.80070    1.000
    C379     C        0.14710    0.76250    0.73997    1.000
    H286     H        0.16540    0.78630    0.74930    1.000
    C380     C        0.07157    0.98326    0.83599    1.000
    H287     H        0.06190    0.02530    0.83660    1.000
    C381     C        0.08440    0.95627    0.81918    1.000
    C382     C        0.09850    0.89476    0.81834    1.000
    H288     H        0.10730    0.87630    0.80690    1.000
    C383     C        0.09976    0.86024    0.83432    1.000
    H289     H        0.10940    0.81820    0.83380    1.000
    C384     C        0.08693    0.88723    0.85113    1.000
    C385     C        0.07283    0.94874    0.85197    1.000
    H290     H        0.06410    0.96720    0.86350    1.000
    C386     C        0.09740    0.75870    0.71226    1.000
    H291     H        0.08010    0.77770    0.70180    1.000
    C387     C        0.85933    0.91991    0.67564    1.000
    H292     H        0.81650    0.92540    0.67580    1.000
    C388     C        0.89147    0.91629    0.69203    1.000
    H293     H        0.87060    0.91930    0.70340    1.000
    C389     C        0.95411    0.90821    0.69176    1.000
    C390     C        0.98461    0.90375    0.67510    1.000
    H294     H        0.02740    0.89820    0.67490    1.000
    C391     C        0.95247    0.90740    0.65871    1.000
    H295     H        0.97330    0.90430    0.64730    1.000
    C392     C        0.88983    0.91544    0.65898    1.000
    C393     C        0.14830    0.70280    0.74182    1.000
    H296     H        0.16740    0.68500    0.75220    1.000
    C394     C        0.12150    0.66550    0.72845    1.000
    C395     C        0.76520    0.83710    0.77426    1.000
    H297     H        0.78580    0.80380    0.76880    1.000
    C396     C        0.38570    0.87820    0.75140    1.000
    H298     H        0.41280    0.86050    0.74280    1.000
    C397     C        0.51570    0.90680    0.75761    1.000
    H299     H        0.49970    0.91790    0.74600    1.000
    C398     C        0.49270    0.87740    0.79005    1.000
    H300     H        0.46520    0.87030    0.79990    1.000
    C399     C        0.55710    0.87590    0.79314    1.000
    H301     H        0.57240    0.86760    0.80510    1.000
    C400     C        0.57960    0.90660    0.76078    1.000
    H302     H        0.60800    0.91870    0.75170    1.000
    C401     C        0.09730    0.69620    0.71355    1.000
    H303     H        0.07990    0.67330    0.70380    1.000
    C402     C        0.84188    0.89483    0.60961    1.000
    H304     H        0.86080    0.88380    0.59840    1.000
    C403     C        0.78016    0.90820    0.61001    1.000
    C404     C        0.75249    0.92440    0.62645    1.000
    H305     H        0.71030    0.93350    0.62670    1.000
    C405     C        0.78650    0.92720    0.64250    1.000
    H306     H        0.76760    0.93820    0.65370    1.000
    C406     C        0.84830    0.91380    0.64211    1.000
    C407     C        0.87594    0.89770    0.62566    1.000
    H307     H        0.91810    0.88850    0.62540    1.000
    C408     C        0.32230    0.88590    0.74720    1.000
    H308     H        0.30730    0.87120    0.73580    1.000
    C409     C        0.40720    0.89820    0.76916    1.000
    O49      O        0.04530    0.89471    0.70821    1.000
    C410     C        0.76060    0.91620    0.79435    1.000
    H309     H        0.78140    0.94410    0.80210    1.000
    C411     C        0.64858    0.91384    0.57592    1.000
    H310     H        0.60640    0.92290    0.57600    1.000
    C412     C        0.68203    0.91800    0.59206    1.000
    H311     H        0.66270    0.92990    0.60320    1.000
    C413     C        0.74380    0.90480    0.59197    1.000
    C414     C        0.77212    0.88740    0.57573    1.000
    H312     H        0.81430    0.87840    0.57570    1.000
    C415     C        0.73866    0.88330    0.55960    1.000
    H313     H        0.75800    0.87140    0.54850    1.000
    N20      N        0.67689    0.89645    0.55969    1.000
    O50      O        0.18733    0.95575    0.76370    1.000
    C416     C        0.12420    0.69020    0.91877    1.000
    H314     H        0.14200    0.67520    0.90780    1.000
    C417     C        0.30480    0.93050    0.77614    1.000
    H315     H        0.27710    0.94870    0.78450    1.000
    C418     C        0.07800    0.72870    0.95038    1.000
    H316     H        0.06470    0.74540    0.96170    1.000
    C419     C        0.07150    0.76430    0.93503    1.000
    H317     H        0.05000    0.80170    0.93590    1.000
    C420     C        0.12670    0.65590    0.93473    1.000
    H318     H        0.14760    0.61820    0.93440    1.000
    C421     C        0.13780    0.82470    0.89802    1.000
    H319     H        0.17150    0.82740    0.90610    1.000
    C422     C        0.08890    0.78720    0.90234    1.000
    C423     C        0.03960    0.78330    0.89048    1.000
    H320     H        0.00620    0.75770    0.89340    1.000
    C424     C        0.03910    0.81680    0.87429    1.000
    H321     H        0.00540    0.81410    0.86620    1.000
    C425     C        0.08800    0.85420    0.86997    1.000
    C426     C        0.13730    0.85810    0.88184    1.000
    H322     H        0.17070    0.88370    0.87890    1.000
    C427     C        0.09566    0.30250    0.73314    1.000
    H323     H        0.09830    0.27300    0.72360    1.000
    C428     C        0.10130    0.36390    0.72901    1.000
    H324     H        0.10780    0.37640    0.71670    1.000
    C429     C        0.09740    0.40690    0.74292    1.000
    C430     C        0.08790    0.38860    0.76096    1.000
    H325     H        0.08530    0.41800    0.77050    1.000
    C431     C        0.08230    0.32720    0.76508    1.000
    H326     H        0.07580    0.31460    0.77740    1.000
    C432     C        0.08620    0.28410    0.75117    1.000
    C433     C        0.12503    0.57720    0.74989    1.000
    H327     H        0.13700    0.60430    0.75940    1.000
    C434     C        0.11430    0.59930    0.73231    1.000
    C435     C        0.09670    0.55970    0.71840    1.000
    H328     H        0.08940    0.57480    0.70640    1.000
    C436     C        0.09000    0.49810    0.72209    1.000
    H329     H        0.07800    0.47110    0.71260    1.000
    C437     C        0.10080    0.47610    0.73968    1.000
    C438     C        0.11830    0.51560    0.75358    1.000
    H330     H        0.12570    0.50060    0.76560    1.000
    C439     C        0.47230    0.88860    0.77364    1.000
    C440     C        0.59750    0.88680    0.77859    1.000
    C441     C        0.06510    0.66240    0.93808    1.000
    H331     H        0.03800    0.62920    0.93970    1.000
    C442     C        0.13480    0.72250    0.94885    1.000
    H332     H        0.16240    0.73220    0.95840    1.000
    C443     C        0.13300    0.76160    0.93355    1.000
    H333     H        0.15720    0.79740    0.93320    1.000
    C444     C        0.06100    0.69490    0.92162    1.000
    H334     H        0.03450    0.68110    0.91220    1.000
    C445     C        0.06840    0.70110    0.72912    1.000
    H335     H        0.03070    0.68210    0.73180    1.000
    C446     C        0.17440    0.70330    0.73114    1.000
    H336     H        0.20920    0.68760    0.73720    1.000
    C447     C        0.06960    0.76190    0.72611    1.000
    H337     H        0.03230    0.78300    0.72450    1.000
    C448     C        0.17420    0.76050    0.72504    1.000
    H338     H        0.21050    0.77860    0.72060    1.000
    C449     C        0.50230    0.83360    0.77627    1.000
    H339     H        0.47990    0.79670    0.77640    1.000
    C450     C        0.50500    0.94260    0.77350    1.000
    H340     H        0.48450    0.98020    0.77170    1.000
    C451     C        0.56760    0.94180    0.77597    1.000
    H341     H        0.58990    0.97870    0.77590    1.000
    C452     C        0.56490    0.83280    0.77874    1.000
    H342     H        0.58540    0.79520    0.78050    1.000
    C453     C        0.12120    0.80240    0.86901    1.000
    H343     H        0.13860    0.78890    0.85780    1.000
    C454     C        0.12970    0.76560    0.88747    1.000
    H344     H        0.15780    0.73320    0.88890    1.000
    C455     C        0.05380    0.83300    0.90023    1.000
    H345     H        0.02740    0.84420    0.91000    1.000
    C456     C        0.05310    0.86710    0.88405    1.000
    H346     H        0.02640    0.90090    0.88320    1.000
    C457     C        0.13840    0.31680    0.75865    1.000
    H347     H        0.16730    0.29740    0.76640    1.000
    C458     C        0.04270    0.31490    0.74081    1.000
    H348     H        0.00650    0.29490    0.73720    1.000
    C459     C        0.05220    0.37300    0.73602    1.000
    H349     H        0.02560    0.39100    0.72730    1.000
    C460     C        0.14340    0.37630    0.75394    1.000
    H350     H        0.17790    0.39870    0.75790    1.000
    Co21     Co       0.59837    0.47966    0.25949    1.000
    Co22     Co       0.47985    0.40162    0.25163    1.000
    Co23     Co       0.60949    0.62008    0.28540    1.000
    Co24     Co       0.62057    0.39029    0.22578    1.000
    O51      O        0.57092    0.39517    0.25039    1.000
    H351     H        0.58540    0.36310    0.25910    1.000
    O52      O        0.60599    0.57229    0.26127    1.000
    H352     H        0.63830    0.58710    0.25270    1.000
    O53      O        0.57512    0.46628    0.28717    1.000
    O54      O        0.60710    0.54598    0.30257    1.000
    O55      O        0.46368    0.42723    0.22423    1.000
    O56      O        0.60952    0.70132    0.27077    1.000
    O57      O        0.70083    0.39296    0.24040    1.000
    O58      O        0.54478    0.68580    0.24666    1.000
    N21      N        0.62110    0.29262    0.22531    1.000
    N22      N        0.60112    0.17329    0.45081    1.000
    N23      N        0.29403    0.37590    0.28586    1.000
    C461     C        0.58080    0.71830    0.25705    1.000
    C462     C        0.71900    0.42280    0.25438    1.000
    C463     C        0.78280    0.41350    0.25906    1.000
    C464     C        0.59270    0.49060    0.30174    1.000
    C465     C        0.49380    0.41300    0.20937    1.000
    C466     C        0.86440    0.42290    0.28190    1.000
    H353     H        0.87640    0.43390    0.29400    1.000
    C467     C        0.16720    0.38640    0.28120    1.000
    C468     C        0.59520    0.24710    0.41893    1.000
    C469     C        0.20040    0.34920    0.27054    1.000
    H354     H        0.18160    0.33010    0.26030    1.000
    C470     C        0.19770    0.42240    0.29327    1.000
    H355     H        0.17680    0.45100    0.30070    1.000
    C471     C        0.64710    0.26250    0.23997    1.000
    H356     H        0.66540    0.28630    0.24930    1.000
    C472     C        0.57157    0.48326    0.33599    1.000
    H357     H        0.56190    0.52530    0.33660    1.000
    C473     C        0.58440    0.45627    0.31918    1.000
    C474     C        0.59850    0.39476    0.31834    1.000
    H358     H        0.60730    0.37630    0.30690    1.000
    C475     C        0.59976    0.36024    0.33432    1.000
    H359     H        0.60940    0.31820    0.33380    1.000
    C476     C        0.58693    0.38723    0.35113    1.000
    C477     C        0.57283    0.44874    0.35197    1.000
    H360     H        0.56410    0.46720    0.36350    1.000
    C478     C        0.59740    0.25870    0.21226    1.000
    H361     H        0.58010    0.27770    0.20180    1.000
    C479     C        0.35933    0.41991    0.17564    1.000
    H362     H        0.31650    0.42540    0.17580    1.000
    C480     C        0.39147    0.41629    0.19203    1.000
    H363     H        0.37060    0.41930    0.20340    1.000
    C481     C        0.45411    0.40821    0.19176    1.000
    C482     C        0.48461    0.40375    0.17510    1.000
    H364     H        0.52740    0.39820    0.17490    1.000
    C483     C        0.45247    0.40740    0.15871    1.000
    H365     H        0.47330    0.40430    0.14730    1.000
    C484     C        0.38983    0.41544    0.15898    1.000
    C485     C        0.64830    0.20280    0.24182    1.000
    H366     H        0.66740    0.18500    0.25220    1.000
    C486     C        0.62150    0.16550    0.22845    1.000
    C487     C        0.26520    0.33710    0.27426    1.000
    H367     H        0.28580    0.30380    0.26880    1.000
    C488     C        0.88570    0.37820    0.25140    1.000
    H368     H        0.91280    0.36050    0.24280    1.000
    C489     C        0.01570    0.40680    0.25761    1.000
    H369     H        0.99970    0.41790    0.24600    1.000
    C490     C        0.99270    0.37740    0.29005    1.000
    H370     H        0.96520    0.37030    0.29990    1.000
    C491     C        0.05710    0.37590    0.29314    1.000
    H371     H        0.07240    0.36760    0.30510    1.000
    C492     C        0.07960    0.40660    0.26078    1.000
    H372     H        0.10800    0.41870    0.25170    1.000
    C493     C        0.59730    0.19620    0.21355    1.000
    H373     H        0.57990    0.17330    0.20380    1.000
    C494     C        0.34188    0.39483    0.10961    1.000
    H374     H        0.36080    0.38380    0.09840    1.000
    C495     C        0.28016    0.40820    0.11001    1.000
    C496     C        0.25249    0.42440    0.12645    1.000
    H375     H        0.21030    0.43350    0.12670    1.000
    C497     C        0.28650    0.42720    0.14250    1.000
    H376     H        0.26760    0.43820    0.15370    1.000
    C498     C        0.34830    0.41380    0.14211    1.000
    C499     C        0.37594    0.39770    0.12566    1.000
    H377     H        0.41810    0.38850    0.12540    1.000
    C500     C        0.82230    0.38590    0.24720    1.000
    H378     H        0.80730    0.37120    0.23580    1.000
    C501     C        0.90720    0.39820    0.26916    1.000
    O59      O        0.54530    0.39471    0.20821    1.000
    C502     C        0.26060    0.41620    0.29435    1.000
    H379     H        0.28140    0.44410    0.30210    1.000
    C503     C        0.14858    0.41384    0.07592    1.000
    H380     H        0.10640    0.42290    0.07600    1.000
    C504     C        0.18203    0.41800    0.09206    1.000
    H381     H        0.16270    0.42990    0.10320    1.000
    C505     C        0.24380    0.40480    0.09197    1.000
    C506     C        0.27212    0.38740    0.07573    1.000
    H382     H        0.31430    0.37840    0.07570    1.000
    C507     C        0.23866    0.38330    0.05960    1.000
    H383     H        0.25800    0.37140    0.04850    1.000
    N24      N        0.17689    0.39645    0.05969    1.000
    O60      O        0.68733    0.45575    0.26370    1.000
    C508     C        0.62420    0.19020    0.41877    1.000
    H384     H        0.64200    0.17520    0.40780    1.000
    C509     C        0.80480    0.43050    0.27614    1.000
    H385     H        0.77710    0.44870    0.28450    1.000
    C510     C        0.57800    0.22870    0.45038    1.000
    H386     H        0.56470    0.24540    0.46170    1.000
    C511     C        0.57150    0.26430    0.43503    1.000
    H387     H        0.55000    0.30170    0.43590    1.000
    C512     C        0.62670    0.15590    0.43473    1.000
    H388     H        0.64760    0.11820    0.43440    1.000
    C513     C        0.63780    0.32470    0.39802    1.000
    H389     H        0.67150    0.32740    0.40610    1.000
    C514     C        0.58890    0.28720    0.40234    1.000
    C515     C        0.53960    0.28330    0.39048    1.000
    H390     H        0.50620    0.25770    0.39340    1.000
    C516     C        0.53910    0.31680    0.37429    1.000
    H391     H        0.50540    0.31410    0.36620    1.000
    C517     C        0.58800    0.35420    0.36997    1.000
    C518     C        0.63730    0.35810    0.38184    1.000
    H392     H        0.67070    0.38370    0.37890    1.000
    C519     C        0.59566    0.80250    0.23314    1.000
    H393     H        0.59830    0.77300    0.22360    1.000
    C520     C        0.60130    0.86390    0.22901    1.000
    H394     H        0.60780    0.87640    0.21670    1.000
    C521     C        0.59740    0.90690    0.24292    1.000
    C522     C        0.58790    0.88860    0.26096    1.000
    H395     H        0.58530    0.91800    0.27050    1.000
    C523     C        0.58230    0.82720    0.26508    1.000
    H396     H        0.57580    0.81460    0.27740    1.000
    C524     C        0.58620    0.78410    0.25117    1.000
    C525     C        0.62503    0.07720    0.24989    1.000
    H397     H        0.63700    0.10430    0.25940    1.000
    C526     C        0.61430    0.09930    0.23231    1.000
    C527     C        0.59670    0.05970    0.21840    1.000
    H398     H        0.58940    0.07480    0.20640    1.000
    C528     C        0.59000    0.99810    0.22209    1.000
    H399     H        0.57800    0.97110    0.21260    1.000
    C529     C        0.60080    0.97610    0.23968    1.000
    C530     C        0.61830    0.01560    0.25358    1.000
    H400     H        0.62570    0.00060    0.26560    1.000
    C531     C        0.97230    0.38860    0.27364    1.000
    C532     C        0.09750    0.38680    0.27859    1.000
    C533     C        0.56510    0.16240    0.43808    1.000
    H401     H        0.53800    0.12920    0.43970    1.000
    C534     C        0.63480    0.22250    0.44885    1.000
    H402     H        0.66240    0.23220    0.45840    1.000
    C535     C        0.63300    0.26160    0.43355    1.000
    H403     H        0.65720    0.29740    0.43320    1.000
    C536     C        0.56100    0.19490    0.42162    1.000
    H404     H        0.53450    0.18110    0.41220    1.000
    C537     C        0.56840    0.20110    0.22912    1.000
    H405     H        0.53070    0.18210    0.23180    1.000
    C538     C        0.67440    0.20330    0.23114    1.000
    H406     H        0.70920    0.18760    0.23720    1.000
    C539     C        0.56960    0.26190    0.22611    1.000
    H407     H        0.53230    0.28300    0.22450    1.000
    C540     C        0.67420    0.26050    0.22504    1.000
    H408     H        0.71050    0.27860    0.22060    1.000
    C541     C        0.00230    0.33360    0.27627    1.000
    H409     H        0.97990    0.29670    0.27640    1.000
    C542     C        0.00500    0.44260    0.27350    1.000
    H410     H        0.98450    0.48020    0.27170    1.000
    C543     C        0.06760    0.44180    0.27597    1.000
    H411     H        0.08990    0.47870    0.27590    1.000
    C544     C        0.06490    0.33280    0.27874    1.000
    H412     H        0.08540    0.29520    0.28050    1.000
    C545     C        0.62120    0.30240    0.36901    1.000
    H413     H        0.63860    0.28890    0.35780    1.000
    C546     C        0.62970    0.26560    0.38747    1.000
    H414     H        0.65780    0.23320    0.38890    1.000
    C547     C        0.55380    0.33300    0.40023    1.000
    H415     H        0.52740    0.34420    0.41000    1.000
    C548     C        0.55310    0.36710    0.38405    1.000
    H416     H        0.52640    0.40090    0.38320    1.000
    C549     C        0.63840    0.81680    0.25865    1.000
    H417     H        0.66730    0.79740    0.26640    1.000
    C550     C        0.54270    0.81490    0.24081    1.000
    H418     H        0.50650    0.79490    0.23720    1.000
    C551     C        0.55220    0.87300    0.23602    1.000
    H419     H        0.52560    0.89100    0.22730    1.000
    C552     C        0.64340    0.87630    0.25394    1.000
    H420     H        0.67790    0.89870    0.25790    1.000
    Co25     Co       0.40163    0.52034    0.25949    1.000
    Co26     Co       0.52015    0.59838    0.25163    1.000
    Co27     Co       0.39051    0.37992    0.28540    1.000
    Co28     Co       0.37943    0.60971    0.22578    1.000
    O61      O        0.42908    0.60483    0.25039    1.000
    H421     H        0.41460    0.63690    0.25910    1.000
    O62      O        0.39401    0.42771    0.26127    1.000
    H422     H        0.36170    0.41290    0.25270    1.000
    O63      O        0.42488    0.53372    0.28717    1.000
    O64      O        0.39290    0.45402    0.30257    1.000
    O65      O        0.53632    0.57277    0.22423    1.000
    O66      O        0.39048    0.29868    0.27077    1.000
    O67      O        0.29917    0.60704    0.24040    1.000
    O68      O        0.45522    0.31420    0.24666    1.000
    N25      N        0.37890    0.70738    0.22531    1.000
    N26      N        0.39888    0.82671    0.45081    1.000
    N27      N        0.70597    0.62410    0.28586    1.000
    C553     C        0.41920    0.28170    0.25705    1.000
    C554     C        0.28100    0.57720    0.25438    1.000
    C555     C        0.21720    0.58650    0.25906    1.000
    C556     C        0.40730    0.50940    0.30174    1.000
    C557     C        0.50620    0.58700    0.20937    1.000
    C558     C        0.13560    0.57710    0.28190    1.000
    H423     H        0.12360    0.56610    0.29400    1.000
    C559     C        0.83280    0.61360    0.28120    1.000
    C560     C        0.40480    0.75290    0.41893    1.000
    C561     C        0.79960    0.65080    0.27054    1.000
    H424     H        0.81840    0.66990    0.26030    1.000
    C562     C        0.80230    0.57760    0.29327    1.000
    H425     H        0.82320    0.54900    0.30070    1.000
    C563     C        0.35290    0.73750    0.23997    1.000
    H426     H        0.33460    0.71370    0.24930    1.000
    C564     C        0.42843    0.51674    0.33599    1.000
    H427     H        0.43810    0.47470    0.33660    1.000
    C565     C        0.41560    0.54373    0.31918    1.000
    C566     C        0.40150    0.60524    0.31834    1.000
    H428     H        0.39270    0.62370    0.30690    1.000
    C567     C        0.40024    0.63976    0.33432    1.000
    H429     H        0.39060    0.68180    0.33380    1.000
    C568     C        0.41307    0.61277    0.35113    1.000
    C569     C        0.42717    0.55126    0.35197    1.000
    H430     H        0.43590    0.53280    0.36350    1.000
    C570     C        0.40260    0.74130    0.21226    1.000
    H431     H        0.41990    0.72230    0.20180    1.000
    C571     C        0.64067    0.58009    0.17564    1.000
    H432     H        0.68350    0.57460    0.17580    1.000
    C572     C        0.60853    0.58371    0.19203    1.000
    H433     H        0.62940    0.58070    0.20340    1.000
    C573     C        0.54589    0.59179    0.19176    1.000
    C574     C        0.51539    0.59625    0.17510    1.000
    H434     H        0.47260    0.60180    0.17490    1.000
    C575     C        0.54753    0.59260    0.15871    1.000
    H435     H        0.52670    0.59570    0.14730    1.000
    C576     C        0.61017    0.58456    0.15898    1.000
    C577     C        0.35170    0.79720    0.24182    1.000
    H436     H        0.33260    0.81500    0.25220    1.000
    C578     C        0.37850    0.83450    0.22845    1.000
    C579     C        0.73480    0.66290    0.27426    1.000
    H437     H        0.71420    0.69620    0.26880    1.000
    C580     C        0.11430    0.62180    0.25140    1.000
    H438     H        0.08720    0.63950    0.24280    1.000
    C581     C        0.98430    0.59320    0.25761    1.000
    H439     H        0.00030    0.58210    0.24600    1.000
    C582     C        0.00730    0.62260    0.29005    1.000
    H440     H        0.03480    0.62970    0.29990    1.000
    C583     C        0.94290    0.62410    0.29314    1.000
    H441     H        0.92760    0.63240    0.30510    1.000
    C584     C        0.92040    0.59340    0.26078    1.000
    H442     H        0.89200    0.58130    0.25170    1.000
    C585     C        0.40270    0.80380    0.21355    1.000
    H443     H        0.42010    0.82670    0.20380    1.000
    C586     C        0.65812    0.60517    0.10961    1.000
    H444     H        0.63920    0.61620    0.09840    1.000
    C587     C        0.71984    0.59180    0.11001    1.000
    C588     C        0.74751    0.57560    0.12645    1.000
    H445     H        0.78970    0.56650    0.12670    1.000
    C589     C        0.71350    0.57280    0.14250    1.000
    H446     H        0.73240    0.56180    0.15370    1.000
    C590     C        0.65170    0.58620    0.14211    1.000
    C591     C        0.62406    0.60230    0.12566    1.000
    H447     H        0.58190    0.61150    0.12540    1.000
    C592     C        0.17770    0.61410    0.24720    1.000
    H448     H        0.19270    0.62880    0.23580    1.000
    C593     C        0.09280    0.60180    0.26916    1.000
    O69      O        0.45470    0.60529    0.20821    1.000
    C594     C        0.73940    0.58380    0.29435    1.000
    H449     H        0.71860    0.55590    0.30210    1.000
    C595     C        0.85142    0.58616    0.07592    1.000
    H450     H        0.89360    0.57710    0.07600    1.000
    C596     C        0.81797    0.58200    0.09206    1.000
    H451     H        0.83730    0.57010    0.10320    1.000
    C597     C        0.75620    0.59520    0.09197    1.000
    C598     C        0.72788    0.61260    0.07573    1.000
    H452     H        0.68570    0.62160    0.07570    1.000
    C599     C        0.76134    0.61670    0.05960    1.000
    H453     H        0.74200    0.62860    0.04850    1.000
    N28      N        0.82311    0.60355    0.05969    1.000
    O70      O        0.31267    0.54425    0.26370    1.000
    C600     C        0.37580    0.80980    0.41877    1.000
    H454     H        0.35800    0.82480    0.40780    1.000
    C601     C        0.19520    0.56950    0.27614    1.000
    H455     H        0.22290    0.55130    0.28450    1.000
    C602     C        0.42200    0.77130    0.45038    1.000
    H456     H        0.43530    0.75460    0.46170    1.000
    C603     C        0.42850    0.73570    0.43503    1.000
    H457     H        0.45000    0.69830    0.43590    1.000
    C604     C        0.37330    0.84410    0.43473    1.000
    H458     H        0.35240    0.88180    0.43440    1.000
    C605     C        0.36220    0.67530    0.39802    1.000
    H459     H        0.32850    0.67260    0.40610    1.000
    C606     C        0.41110    0.71280    0.40234    1.000
    C607     C        0.46040    0.71670    0.39048    1.000
    H460     H        0.49380    0.74230    0.39340    1.000
    C608     C        0.46090    0.68320    0.37429    1.000
    H461     H        0.49460    0.68590    0.36620    1.000
    C609     C        0.41200    0.64580    0.36997    1.000
    C610     C        0.36270    0.64190    0.38184    1.000
    H462     H        0.32930    0.61630    0.37890    1.000
    C611     C        0.40434    0.19750    0.23314    1.000
    H463     H        0.40170    0.22700    0.22360    1.000
    C612     C        0.39870    0.13610    0.22901    1.000
    H464     H        0.39220    0.12360    0.21670    1.000
    C613     C        0.40260    0.09310    0.24292    1.000
    C614     C        0.41210    0.11140    0.26096    1.000
    H465     H        0.41470    0.08200    0.27050    1.000
    C615     C        0.41770    0.17280    0.26508    1.000
    H466     H        0.42420    0.18540    0.27740    1.000
    C616     C        0.41380    0.21590    0.25117    1.000
    C617     C        0.37497    0.92280    0.24989    1.000
    H467     H        0.36300    0.89570    0.25940    1.000
    C618     C        0.38570    0.90070    0.23231    1.000
    C619     C        0.40330    0.94030    0.21840    1.000
    H468     H        0.41060    0.92520    0.20640    1.000
    C620     C        0.41000    0.00190    0.22209    1.000
    H469     H        0.42200    0.02890    0.21260    1.000
    C621     C        0.39920    0.02390    0.23968    1.000
    C622     C        0.38170    0.98440    0.25358    1.000
    H470     H        0.37430    0.99940    0.26560    1.000
    C623     C        0.02770    0.61140    0.27364    1.000
    C624     C        0.90250    0.61320    0.27859    1.000
    C625     C        0.43490    0.83760    0.43808    1.000
    H471     H        0.46200    0.87080    0.43970    1.000
    C626     C        0.36520    0.77750    0.44885    1.000
    H472     H        0.33760    0.76780    0.45840    1.000
    C627     C        0.36700    0.73840    0.43355    1.000
    H473     H        0.34280    0.70260    0.43320    1.000
    C628     C        0.43900    0.80510    0.42162    1.000
    H474     H        0.46550    0.81890    0.41220    1.000
    C629     C        0.43160    0.79890    0.22912    1.000
    H475     H        0.46930    0.81790    0.23180    1.000
    C630     C        0.32560    0.79670    0.23114    1.000
    H476     H        0.29080    0.81240    0.23720    1.000
    C631     C        0.43040    0.73810    0.22611    1.000
    H477     H        0.46770    0.71700    0.22450    1.000
    C632     C        0.32580    0.73950    0.22504    1.000
    H478     H        0.28950    0.72140    0.22060    1.000
    C633     C        0.99770    0.66640    0.27627    1.000
    H479     H        0.02010    0.70330    0.27640    1.000
    C634     C        0.99500    0.55740    0.27350    1.000
    H480     H        0.01550    0.51980    0.27170    1.000
    C635     C        0.93240    0.55820    0.27597    1.000
    H481     H        0.91010    0.52130    0.27590    1.000
    C636     C        0.93510    0.66720    0.27874    1.000
    H482     H        0.91460    0.70480    0.28050    1.000
    C637     C        0.37880    0.69760    0.36901    1.000
    H483     H        0.36140    0.71110    0.35780    1.000
    C638     C        0.37030    0.73440    0.38747    1.000
    H484     H        0.34220    0.76680    0.38890    1.000
    C639     C        0.44620    0.66700    0.40023    1.000
    H485     H        0.47260    0.65580    0.41000    1.000
    C640     C        0.44690    0.63290    0.38405    1.000
    H486     H        0.47360    0.59910    0.38320    1.000
    C641     C        0.36160    0.18320    0.25865    1.000
    H487     H        0.33270    0.20260    0.26640    1.000
    C642     C        0.45730    0.18510    0.24081    1.000
    H488     H        0.49350    0.20510    0.23720    1.000
    C643     C        0.44780    0.12700    0.23602    1.000
    H489     H        0.47440    0.10900    0.22730    1.000
    C644     C        0.35660    0.12370    0.25394    1.000
    H490     H        0.32210    0.10130    0.25790    1.000
    Co29     Co       0.90163    0.02034    0.75949    1.000
    Co30     Co       0.02015    0.09838    0.75163    1.000
    Co31     Co       0.89051    0.87992    0.78540    1.000
    Co32     Co       0.87943    0.10971    0.72578    1.000
    O71      O        0.92908    0.10483    0.75039    1.000
    H491     H        0.91460    0.13690    0.75910    1.000
    O72      O        0.89401    0.92771    0.76127    1.000
    H492     H        0.86170    0.91290    0.75270    1.000
    O73      O        0.92488    0.03372    0.78717    1.000
    O74      O        0.89290    0.95402    0.80257    1.000
    O75      O        0.03632    0.07277    0.72423    1.000
    O76      O        0.89048    0.79868    0.77077    1.000
    O77      O        0.79917    0.10704    0.74040    1.000
    O78      O        0.95522    0.81420    0.74666    1.000
    N29      N        0.87890    0.20738    0.72531    1.000
    N30      N        0.89888    0.32671    0.95081    1.000
    N31      N        0.20597    0.12410    0.78586    1.000
    C645     C        0.91920    0.78170    0.75705    1.000
    C646     C        0.78100    0.07720    0.75438    1.000
    C647     C        0.71720    0.08650    0.75906    1.000
    C648     C        0.90730    0.00940    0.80174    1.000
    C649     C        0.00620    0.08700    0.70937    1.000
    C650     C        0.63560    0.07710    0.78190    1.000
    H493     H        0.62360    0.06610    0.79400    1.000
    C651     C        0.33280    0.11360    0.78120    1.000
    C652     C        0.90480    0.25290    0.91893    1.000
    C653     C        0.29960    0.15080    0.77054    1.000
    H494     H        0.31840    0.16990    0.76030    1.000
    C654     C        0.30230    0.07760    0.79327    1.000
    H495     H        0.32320    0.04900    0.80070    1.000
    C655     C        0.85290    0.23750    0.73997    1.000
    H496     H        0.83460    0.21370    0.74930    1.000
    C656     C        0.92843    0.01674    0.83599    1.000
    H497     H        0.93810    0.97470    0.83660    1.000
    C657     C        0.91560    0.04373    0.81918    1.000
    C658     C        0.90150    0.10524    0.81834    1.000
    H498     H        0.89270    0.12370    0.80690    1.000
    C659     C        0.90024    0.13976    0.83432    1.000
    H499     H        0.89060    0.18180    0.83380    1.000
    C660     C        0.91307    0.11277    0.85113    1.000
    C661     C        0.92717    0.05126    0.85197    1.000
    H500     H        0.93590    0.03280    0.86350    1.000
    C662     C        0.90260    0.24130    0.71226    1.000
    H501     H        0.91990    0.22230    0.70180    1.000
    C663     C        0.14067    0.08009    0.67564    1.000
    H502     H        0.18350    0.07460    0.67580    1.000
    C664     C        0.10853    0.08371    0.69203    1.000
    H503     H        0.12940    0.08070    0.70340    1.000
    C665     C        0.04589    0.09179    0.69176    1.000
    C666     C        0.01539    0.09625    0.67510    1.000
    H504     H        0.97260    0.10180    0.67490    1.000
    C667     C        0.04753    0.09260    0.65871    1.000
    H505     H        0.02670    0.09570    0.64730    1.000
    C668     C        0.11017    0.08456    0.65898    1.000
    C669     C        0.85170    0.29720    0.74182    1.000
    H506     H        0.83260    0.31500    0.75220    1.000
    C670     C        0.87850    0.33450    0.72845    1.000
    C671     C        0.23480    0.16290    0.77426    1.000
    H507     H        0.21420    0.19620    0.76880    1.000
    C672     C        0.61430    0.12180    0.75140    1.000
    H508     H        0.58720    0.13950    0.74280    1.000
    C673     C        0.48430    0.09320    0.75761    1.000
    H509     H        0.50030    0.08210    0.74600    1.000
    C674     C        0.50730    0.12260    0.79005    1.000
    H510     H        0.53480    0.12970    0.79990    1.000
    C675     C        0.44290    0.12410    0.79314    1.000
    H511     H        0.42760    0.13240    0.80510    1.000
    C676     C        0.42040    0.09340    0.76078    1.000
    H512     H        0.39200    0.08130    0.75170    1.000
    C677     C        0.90270    0.30380    0.71355    1.000
    H513     H        0.92010    0.32670    0.70380    1.000
    C678     C        0.15812    0.10517    0.60961    1.000
    H514     H        0.13920    0.11620    0.59840    1.000
    C679     C        0.21984    0.09180    0.61001    1.000
    C680     C        0.24751    0.07560    0.62645    1.000
    H515     H        0.28970    0.06650    0.62670    1.000
    C681     C        0.21350    0.07280    0.64250    1.000
    H516     H        0.23240    0.06180    0.65370    1.000
    C682     C        0.15170    0.08620    0.64211    1.000
    C683     C        0.12406    0.10230    0.62566    1.000
    H517     H        0.08190    0.11150    0.62540    1.000
    C684     C        0.67770    0.11410    0.74720    1.000
    H518     H        0.69270    0.12880    0.73580    1.000
    C685     C        0.59280    0.10180    0.76916    1.000
    O79      O        0.95470    0.10529    0.70821    1.000
    C686     C        0.23940    0.08380    0.79435    1.000
    H519     H        0.21860    0.05590    0.80210    1.000
    C687     C        0.35142    0.08616    0.57592    1.000
    H520     H        0.39360    0.07710    0.57600    1.000
    C688     C        0.31797    0.08200    0.59206    1.000
    H521     H        0.33730    0.07010    0.60320    1.000
    C689     C        0.25620    0.09520    0.59197    1.000
    C690     C        0.22788    0.11260    0.57573    1.000
    H522     H        0.18570    0.12160    0.57570    1.000
    C691     C        0.26134    0.11670    0.55960    1.000
    H523     H        0.24200    0.12860    0.54850    1.000
    N32      N        0.32311    0.10355    0.55969    1.000
    O80      O        0.81267    0.04425    0.76370    1.000
    C692     C        0.87580    0.30980    0.91877    1.000
    H524     H        0.85800    0.32480    0.90780    1.000
    C693     C        0.69520    0.06950    0.77614    1.000
    H525     H        0.72290    0.05130    0.78450    1.000
    C694     C        0.92200    0.27130    0.95038    1.000
    H526     H        0.93530    0.25460    0.96170    1.000
    C695     C        0.92850    0.23570    0.93503    1.000
    H527     H        0.95000    0.19830    0.93590    1.000
    C696     C        0.87330    0.34410    0.93473    1.000
    H528     H        0.85240    0.38180    0.93440    1.000
    C697     C        0.86220    0.17530    0.89802    1.000
    H529     H        0.82850    0.17260    0.90610    1.000
    C698     C        0.91110    0.21280    0.90234    1.000
    C699     C        0.96040    0.21670    0.89048    1.000
    H530     H        0.99380    0.24230    0.89340    1.000
    C700     C        0.96090    0.18320    0.87429    1.000
    H531     H        0.99460    0.18590    0.86620    1.000
    C701     C        0.91200    0.14580    0.86997    1.000
    C702     C        0.86270    0.14190    0.88184    1.000
    H532     H        0.82930    0.11630    0.87890    1.000
    C703     C        0.90434    0.69750    0.73314    1.000
    H533     H        0.90170    0.72700    0.72360    1.000
    C704     C        0.89870    0.63610    0.72901    1.000
    H534     H        0.89220    0.62360    0.71670    1.000
    C705     C        0.90260    0.59310    0.74292    1.000
    C706     C        0.91210    0.61140    0.76096    1.000
    H535     H        0.91470    0.58200    0.77050    1.000
    C707     C        0.91770    0.67280    0.76508    1.000
    H536     H        0.92420    0.68540    0.77740    1.000
    C708     C        0.91380    0.71590    0.75117    1.000
    C709     C        0.87497    0.42280    0.74989    1.000
    H537     H        0.86300    0.39570    0.75940    1.000
    C710     C        0.88570    0.40070    0.73231    1.000
    C711     C        0.90330    0.44030    0.71840    1.000
    H538     H        0.91060    0.42520    0.70640    1.000
    C712     C        0.91000    0.50190    0.72209    1.000
    H539     H        0.92200    0.52890    0.71260    1.000
    C713     C        0.89920    0.52390    0.73968    1.000
    C714     C        0.88170    0.48440    0.75358    1.000
    H540     H        0.87430    0.49940    0.76560    1.000
    C715     C        0.52770    0.11140    0.77364    1.000
    C716     C        0.40250    0.11320    0.77859    1.000
    C717     C        0.93490    0.33760    0.93808    1.000
    H541     H        0.96200    0.37080    0.93970    1.000
    C718     C        0.86520    0.27750    0.94885    1.000
    H542     H        0.83760    0.26780    0.95840    1.000
    C719     C        0.86700    0.23840    0.93355    1.000
    H543     H        0.84280    0.20260    0.93320    1.000
    C720     C        0.93900    0.30510    0.92162    1.000
    H544     H        0.96550    0.31890    0.91220    1.000
    C721     C        0.93160    0.29890    0.72912    1.000
    H545     H        0.96930    0.31790    0.73180    1.000
    C722     C        0.82560    0.29670    0.73114    1.000
    H546     H        0.79080    0.31240    0.73720    1.000
    C723     C        0.93040    0.23810    0.72611    1.000
    H547     H        0.96770    0.21700    0.72450    1.000
    C724     C        0.82580    0.23950    0.72504    1.000
    H548     H        0.78950    0.22140    0.72060    1.000
    C725     C        0.49770    0.16640    0.77627    1.000
    H549     H        0.52010    0.20330    0.77640    1.000
    C726     C        0.49500    0.05740    0.77350    1.000
    H550     H        0.51550    0.01980    0.77170    1.000
    C727     C        0.43240    0.05820    0.77597    1.000
    H551     H        0.41010    0.02130    0.77590    1.000
    C728     C        0.43510    0.16720    0.77874    1.000
    H552     H        0.41460    0.20480    0.78050    1.000
    C729     C        0.87880    0.19760    0.86901    1.000
    H553     H        0.86140    0.21110    0.85780    1.000
    C730     C        0.87030    0.23440    0.88747    1.000
    H554     H        0.84220    0.26680    0.88890    1.000
    C731     C        0.94620    0.16700    0.90023    1.000
    H555     H        0.97260    0.15580    0.91000    1.000
    C732     C        0.94690    0.13290    0.88405    1.000
    H556     H        0.97360    0.09910    0.88320    1.000
    C733     C        0.86160    0.68320    0.75865    1.000
    H557     H        0.83270    0.70260    0.76640    1.000
    C734     C        0.95730    0.68510    0.74081    1.000
    H558     H        0.99350    0.70510    0.73720    1.000
    C735     C        0.94780    0.62700    0.73602    1.000
    H559     H        0.97440    0.60900    0.72730    1.000
    C736     C        0.85660    0.62370    0.75394    1.000
    H560     H        0.82210    0.60130    0.75790    1.000
