# CIF file generated by openbabel 3.1.0, see https://openbabel.org
data_I
_chemical_name_common 'image0'
_cell_length_a 6.2152
_cell_length_b 18.8391
_cell_length_c 16.6568
_cell_angle_alpha 90
_cell_angle_beta 92.2293
_cell_angle_gamma 90
_space_group_name_H-M_alt 'P 1'
_space_group_name_Hall 'P 1'
loop_
    _symmetry_equiv_pos_as_xyz
    x,y,z
loop_
    _atom_site_label
    _atom_site_type_symbol
    _atom_site_fract_x
    _atom_site_fract_y
    _atom_site_fract_z
    _atom_site_occupancy
    Ga1      Ga       0.76728    0.44126    0.59771    1.000
    O1       O        0.75770    0.49210    0.49951    1.000
    O2       O        0.77350    0.51849    0.67576    1.000
    O3       O        0.46030    0.44167    0.60533    1.000
    O4       O        0.07420    0.43504    0.60813    1.000
    O5       O        0.76320    0.36175    0.68426    1.000
    O6       O        0.75890    0.35303    0.52556    1.000
    P1       P        0.74114    0.55873    0.44932    1.000
    P2       P        0.83625    0.53572    0.76108    1.000
    O7       O        0.73910    0.62326    0.50768    1.000
    O8       O        0.69830    0.59471    0.79144    1.000
    O9       O        0.81570    0.46763    0.81220    1.000
    O10      O        0.07910    0.55873    0.76600    1.000
    H1       H        0.73020    0.66010    0.48160    1.000
    Ga2      Ga       0.71357    0.65813    0.88290    1.000
    H2       H        0.84970    0.47650    0.85920    1.000
    H3       H        0.11470    0.56830    0.81270    1.000
    O11      O        0.40850    0.65810    0.87890    1.000
    O12      O        0.70890    0.58321    0.96550    1.000
    O13      O        0.72340    0.74359    0.80784    1.000
    O14      O        0.72810    0.73486    0.96682    1.000
    O15      O        0.02570    0.65072    0.88353    1.000
    P3       P        0.22093    0.69046    0.92124    1.000
    P4       P        0.81290    0.53097    0.01756    1.000
    C1       C        0.73120    0.80080    0.84490    1.000
    C2       C        0.73370    0.79590    0.93750    1.000
    O16      O        0.23340    0.67190    0.01280    1.000
    O17      O        0.20790    0.76901    0.91390    1.000
    O18      O        0.89060    0.46780    0.96840    1.000
    O19      O        0.99230    0.56870    0.06510    1.000
    O20      O        0.63900    0.50640    0.08960    1.000
    H4       H        0.24070    0.62880    0.01850    1.000
    Ga3      Ga       0.73272    0.94126    0.90229    1.000
    O21      O        0.74230    0.99210    0.00049    1.000
    O22      O        0.72650    0.01849    0.82424    1.000
    O23      O        0.03970    0.94167    0.89467    1.000
    O24      O        0.42580    0.93504    0.89187    1.000
    O25      O        0.73680    0.86175    0.81574    1.000
    O26      O        0.74110    0.85303    0.97444    1.000
    P5       P        0.75886    0.05873    0.05068    1.000
    P6       P        0.66375    0.03572    0.73892    1.000
    O27      O        0.76090    0.12326    0.99232    1.000
    O28      O        0.80170    0.09471    0.70856    1.000
    O29      O        0.68430    0.96763    0.68780    1.000
    O30      O        0.42090    0.05873    0.73400    1.000
    H5       H        0.76980    0.16010    0.01840    1.000
    Ga4      Ga       0.78643    0.15813    0.61710    1.000
    H6       H        0.65030    0.97650    0.64080    1.000
    H7       H        0.38530    0.06830    0.68730    1.000
    O31      O        0.09150    0.15810    0.62110    1.000
    O32      O        0.79110    0.08321    0.53450    1.000
    O33      O        0.77660    0.24359    0.69216    1.000
    O34      O        0.77190    0.23486    0.53318    1.000
    O35      O        0.47430    0.15072    0.61647    1.000
    P7       P        0.27907    0.19046    0.57876    1.000
    P8       P        0.68710    0.03097    0.48244    1.000
    C3       C        0.76880    0.30080    0.65510    1.000
    C4       C        0.76630    0.29590    0.56250    1.000
    O36      O        0.26660    0.17190    0.48720    1.000
    O37      O        0.29210    0.26901    0.58610    1.000
    O38      O        0.60940    0.96780    0.53160    1.000
    O39      O        0.50770    0.06870    0.43490    1.000
    O40      O        0.86100    0.00640    0.41040    1.000
    H8       H        0.25930    0.12880    0.48150    1.000
    Ga5      Ga       0.23272    0.55874    0.40229    1.000
    O41      O        0.24230    0.50790    0.50049    1.000
    O42      O        0.22650    0.48151    0.32424    1.000
    O43      O        0.53970    0.55833    0.39467    1.000
    O44      O        0.92580    0.56496    0.39187    1.000
    O45      O        0.23680    0.63825    0.31574    1.000
    O46      O        0.24110    0.64697    0.47444    1.000
    P9       P        0.25886    0.44127    0.55068    1.000
    P10      P        0.16375    0.46428    0.23892    1.000
    O47      O        0.26090    0.37674    0.49232    1.000
    O48      O        0.30170    0.40529    0.20856    1.000
    O49      O        0.18430    0.53237    0.18780    1.000
    O50      O        0.92090    0.44127    0.23400    1.000
    H9       H        0.26980    0.33990    0.51840    1.000
    Ga6      Ga       0.28643    0.34187    0.11710    1.000
    H10      H        0.15030    0.52350    0.14080    1.000
    H11      H        0.88530    0.43170    0.18730    1.000
    O51      O        0.59150    0.34190    0.12110    1.000
    O52      O        0.29110    0.41679    0.03450    1.000
    O53      O        0.27660    0.25641    0.19216    1.000
    O54      O        0.27190    0.26514    0.03318    1.000
    O55      O        0.97430    0.34928    0.11647    1.000
    P11      P        0.77907    0.30954    0.07876    1.000
    P12      P        0.18710    0.46903    0.98244    1.000
    C5       C        0.26880    0.19920    0.15510    1.000
    C6       C        0.26630    0.20410    0.06250    1.000
    O56      O        0.76660    0.32810    0.98720    1.000
    O57      O        0.79210    0.23099    0.08610    1.000
    O58      O        0.10940    0.53220    0.03160    1.000
    O59      O        0.00770    0.43130    0.93490    1.000
    O60      O        0.36100    0.49360    0.91040    1.000
    H12      H        0.75930    0.37120    0.98150    1.000
    Ga7      Ga       0.26728    0.05874    0.09771    1.000
    O61      O        0.25770    0.00790    0.99951    1.000
    O62      O        0.27350    0.98151    0.17576    1.000
    O63      O        0.96030    0.05833    0.10533    1.000
    O64      O        0.57420    0.06496    0.10813    1.000
    O65      O        0.26320    0.13825    0.18426    1.000
    O66      O        0.25890    0.14697    0.02556    1.000
    P13      P        0.24114    0.94127    0.94932    1.000
    P14      P        0.33625    0.96428    0.26108    1.000
    O67      O        0.23910    0.87674    0.00768    1.000
    O68      O        0.19830    0.90529    0.29144    1.000
    O69      O        0.31570    0.03237    0.31220    1.000
    O70      O        0.57910    0.94127    0.26600    1.000
    H13      H        0.23020    0.83990    0.98160    1.000
    Ga8      Ga       0.21357    0.84187    0.38290    1.000
    H14      H        0.34970    0.02350    0.35920    1.000
    H15      H        0.61470    0.93170    0.31270    1.000
    O71      O        0.90850    0.84190    0.37890    1.000
    O72      O        0.20890    0.91679    0.46550    1.000
    O73      O        0.22340    0.75641    0.30784    1.000
    O74      O        0.22810    0.76514    0.46682    1.000
    O75      O        0.52570    0.84928    0.38353    1.000
    P15      P        0.72093    0.80954    0.42124    1.000
    P16      P        0.31290    0.96903    0.51756    1.000
    C7       C        0.23120    0.69920    0.34490    1.000
    C8       C        0.23370    0.70410    0.43750    1.000
    O76      O        0.73340    0.82810    0.51280    1.000
    O77      O        0.70790    0.73099    0.41390    1.000
    O78      O        0.39060    0.03220    0.46840    1.000
    O79      O        0.49230    0.93130    0.56510    1.000
    O80      O        0.13900    0.99360    0.58960    1.000
    H16      H        0.74070    0.87120    0.51850    1.000
