# CIF file generated by openbabel 3.1.0, see https://openbabel.org
data_I
_chemical_name_common 'image0'
_cell_length_a 31.6491
_cell_length_b 14.9143
_cell_length_c 13.2656
_cell_angle_alpha 90
_cell_angle_beta 96.466
_cell_angle_gamma 90
_space_group_name_H-M_alt 'P 1'
_space_group_name_Hall 'P 1'
loop_
    _symmetry_equiv_pos_as_xyz
    x,y,z
loop_
    _atom_site_label
    _atom_site_type_symbol
    _atom_site_fract_x
    _atom_site_fract_y
    _atom_site_fract_z
    _atom_site_occupancy
    Tb1      Tb       0.18948    0.20545    0.46936    1.000
    O1       O        0.12167    0.18830    0.54480    1.000
    O2       O        0.13583    0.31710    0.48580    1.000
    O3       O        0.79555    0.27610    0.87120    1.000
    O4       O        0.73482    0.35490    0.85690    1.000
    O5       O        0.77052    0.66720    0.56020    1.000
    O6       O        0.71508    0.58540    0.58300    1.000
    C1       C        0.85011    0.45872    0.68881    1.000
    C2       C        0.82475    0.52474    0.63894    1.000
    C3       C        0.78176    0.52940    0.65123    1.000
    C4       C        0.76414    0.46803    0.71339    1.000
    C5       C        0.78951    0.40201    0.76326    1.000
    C6       C        0.83249    0.39735    0.75097    1.000
    C7       C        0.99739    0.38153    0.61882    1.000
    C8       C        0.00246    0.28895    0.62054    1.000
    C9       C        0.03979    0.25103    0.59405    1.000
    C10      C        0.07204    0.30570    0.56584    1.000
    C11      C        0.06695    0.39828    0.56413    1.000
    C12      C        0.02964    0.43619    0.59061    1.000
    N1       N        0.89466    0.45642    0.67705    1.000
    N2       N        0.91741    0.53331    0.68134    1.000
    N3       N        0.95549    0.51186    0.66253    1.000
    C13      C        0.95794    0.42264    0.64489    1.000
    C14      C        0.91844    0.38390    0.65767    1.000
    C15      C        0.75439    0.60020    0.59490    1.000
    C16      C        0.77199    0.33958    0.83716    1.000
    C17      C        0.11212    0.26660    0.53090    1.000
    Tb2      Tb       0.68948    0.70545    0.46936    1.000
    O7       O        0.62167    0.68830    0.54480    1.000
    O8       O        0.63583    0.81710    0.48580    1.000
    O9       O        0.29555    0.77610    0.87120    1.000
    O10      O        0.23482    0.85490    0.85690    1.000
    O11      O        0.27052    0.16720    0.56020    1.000
    O12      O        0.21508    0.08540    0.58300    1.000
    C18      C        0.35011    0.95872    0.68881    1.000
    C19      C        0.32475    0.02474    0.63894    1.000
    C20      C        0.28176    0.02940    0.65123    1.000
    C21      C        0.26414    0.96803    0.71339    1.000
    C22      C        0.28951    0.90201    0.76326    1.000
    C23      C        0.33249    0.89735    0.75097    1.000
    C24      C        0.49739    0.88153    0.61882    1.000
    C25      C        0.50246    0.78895    0.62054    1.000
    C26      C        0.53979    0.75103    0.59405    1.000
    C27      C        0.57204    0.80570    0.56584    1.000
    C28      C        0.56695    0.89828    0.56413    1.000
    C29      C        0.52964    0.93619    0.59061    1.000
    N4       N        0.39466    0.95642    0.67705    1.000
    N5       N        0.41741    0.03331    0.68134    1.000
    N6       N        0.45549    0.01186    0.66253    1.000
    C30      C        0.45794    0.92264    0.64489    1.000
    C31      C        0.41844    0.88390    0.65767    1.000
    C32      C        0.25439    0.10020    0.59490    1.000
    C33      C        0.27199    0.83958    0.83716    1.000
    C34      C        0.61212    0.76660    0.53090    1.000
    Tb3      Tb       0.81052    0.20545    0.03064    1.000
    O13      O        0.87833    0.18830    0.95520    1.000
    O14      O        0.86417    0.31710    0.01420    1.000
    O15      O        0.20445    0.27610    0.62880    1.000
    O16      O        0.26518    0.35490    0.64310    1.000
    O17      O        0.22948    0.66720    0.93980    1.000
    O18      O        0.28492    0.58540    0.91700    1.000
    C35      C        0.14989    0.45872    0.81119    1.000
    C36      C        0.17525    0.52474    0.86106    1.000
    C37      C        0.21824    0.52940    0.84877    1.000
    C38      C        0.23586    0.46803    0.78661    1.000
    C39      C        0.21049    0.40201    0.73674    1.000
    C40      C        0.16751    0.39735    0.74903    1.000
    C41      C        0.00261    0.38153    0.88118    1.000
    C42      C        0.99754    0.28895    0.87946    1.000
    C43      C        0.96021    0.25103    0.90595    1.000
    C44      C        0.92796    0.30570    0.93416    1.000
    C45      C        0.93305    0.39828    0.93587    1.000
    C46      C        0.97036    0.43619    0.90939    1.000
    N7       N        0.10534    0.45642    0.82295    1.000
    N8       N        0.08259    0.53331    0.81866    1.000
    N9       N        0.04451    0.51186    0.83747    1.000
    C47      C        0.04206    0.42264    0.85511    1.000
    C48      C        0.08156    0.38390    0.84233    1.000
    C49      C        0.24561    0.60020    0.90510    1.000
    C50      C        0.22801    0.33958    0.66284    1.000
    C51      C        0.88788    0.26660    0.96910    1.000
    Tb4      Tb       0.31052    0.70545    0.03064    1.000
    O19      O        0.37833    0.68830    0.95520    1.000
    O20      O        0.36417    0.81710    0.01420    1.000
    O21      O        0.70445    0.77610    0.62880    1.000
    O22      O        0.76518    0.85490    0.64310    1.000
    O23      O        0.72948    0.16720    0.93980    1.000
    O24      O        0.78492    0.08540    0.91700    1.000
    C52      C        0.64989    0.95872    0.81119    1.000
    C53      C        0.67525    0.02474    0.86106    1.000
    C54      C        0.71824    0.02940    0.84877    1.000
    C55      C        0.73586    0.96803    0.78661    1.000
    C56      C        0.71049    0.90201    0.73674    1.000
    C57      C        0.66751    0.89735    0.74903    1.000
    C58      C        0.50261    0.88153    0.88118    1.000
    C59      C        0.49754    0.78895    0.87946    1.000
    C60      C        0.46021    0.75103    0.90595    1.000
    C61      C        0.42796    0.80570    0.93416    1.000
    C62      C        0.43305    0.89828    0.93587    1.000
    C63      C        0.47036    0.93619    0.90939    1.000
    N10      N        0.60534    0.95642    0.82295    1.000
    N11      N        0.58259    0.03331    0.81866    1.000
    N12      N        0.54451    0.01186    0.83747    1.000
    C64      C        0.54206    0.92264    0.85511    1.000
    C65      C        0.58156    0.88390    0.84233    1.000
    C66      C        0.74561    0.10020    0.90510    1.000
    C67      C        0.72801    0.83958    0.66284    1.000
    C68      C        0.38788    0.76660    0.96910    1.000
    Tb5      Tb       0.81052    0.79455    0.53064    1.000
    O25      O        0.87833    0.81170    0.45520    1.000
    O26      O        0.86417    0.68290    0.51420    1.000
    O27      O        0.20445    0.72390    0.12880    1.000
    O28      O        0.26518    0.64510    0.14310    1.000
    O29      O        0.22948    0.33280    0.43980    1.000
    O30      O        0.28492    0.41460    0.41700    1.000
    C69      C        0.14989    0.54128    0.31119    1.000
    C70      C        0.17525    0.47526    0.36106    1.000
    C71      C        0.21824    0.47060    0.34877    1.000
    C72      C        0.23586    0.53197    0.28661    1.000
    C73      C        0.21049    0.59799    0.23674    1.000
    C74      C        0.16751    0.60265    0.24903    1.000
    C75      C        0.00261    0.61847    0.38118    1.000
    C76      C        0.99754    0.71105    0.37946    1.000
    C77      C        0.96021    0.74897    0.40595    1.000
    C78      C        0.92796    0.69430    0.43416    1.000
    C79      C        0.93305    0.60172    0.43587    1.000
    C80      C        0.97036    0.56381    0.40939    1.000
    N13      N        0.10534    0.54358    0.32295    1.000
    N14      N        0.08259    0.46669    0.31866    1.000
    N15      N        0.04451    0.48814    0.33747    1.000
    C81      C        0.04206    0.57736    0.35511    1.000
    C82      C        0.08156    0.61610    0.34233    1.000
    C83      C        0.24561    0.39980    0.40510    1.000
    C84      C        0.22801    0.66042    0.16284    1.000
    C85      C        0.88788    0.73340    0.46910    1.000
    Tb6      Tb       0.31052    0.29455    0.53064    1.000
    O31      O        0.37833    0.31170    0.45520    1.000
    O32      O        0.36417    0.18290    0.51420    1.000
    O33      O        0.70445    0.22390    0.12880    1.000
    O34      O        0.76518    0.14510    0.14310    1.000
    O35      O        0.72948    0.83280    0.43980    1.000
    O36      O        0.78492    0.91460    0.41700    1.000
    C86      C        0.64989    0.04128    0.31119    1.000
    C87      C        0.67525    0.97526    0.36106    1.000
    C88      C        0.71824    0.97060    0.34877    1.000
    C89      C        0.73586    0.03197    0.28661    1.000
    C90      C        0.71049    0.09799    0.23674    1.000
    C91      C        0.66751    0.10265    0.24903    1.000
    C92      C        0.50261    0.11847    0.38118    1.000
    C93      C        0.49754    0.21105    0.37946    1.000
    C94      C        0.46021    0.24897    0.40595    1.000
    C95      C        0.42796    0.19430    0.43416    1.000
    C96      C        0.43305    0.10172    0.43587    1.000
    C97      C        0.47036    0.06381    0.40939    1.000
    N16      N        0.60534    0.04358    0.32295    1.000
    N17      N        0.58259    0.96669    0.31866    1.000
    N18      N        0.54451    0.98814    0.33747    1.000
    C98      C        0.54206    0.07736    0.35511    1.000
    C99      C        0.58156    0.11610    0.34233    1.000
    C100     C        0.74561    0.89980    0.40510    1.000
    C101     C        0.72801    0.16042    0.16284    1.000
    C102     C        0.38788    0.23340    0.46910    1.000
    Tb7      Tb       0.18948    0.79455    0.96936    1.000
    O37      O        0.12167    0.81170    0.04480    1.000
    O38      O        0.13583    0.68290    0.98580    1.000
    O39      O        0.79555    0.72390    0.37120    1.000
    O40      O        0.73482    0.64510    0.35690    1.000
    O41      O        0.77052    0.33280    0.06020    1.000
    O42      O        0.71508    0.41460    0.08300    1.000
    C103     C        0.85011    0.54128    0.18881    1.000
    C104     C        0.82475    0.47526    0.13894    1.000
    C105     C        0.78176    0.47060    0.15123    1.000
    C106     C        0.76414    0.53197    0.21339    1.000
    C107     C        0.78951    0.59799    0.26326    1.000
    C108     C        0.83249    0.60265    0.25097    1.000
    C109     C        0.99739    0.61847    0.11882    1.000
    C110     C        0.00246    0.71105    0.12054    1.000
    C111     C        0.03979    0.74897    0.09405    1.000
    C112     C        0.07204    0.69430    0.06584    1.000
    C113     C        0.06695    0.60172    0.06413    1.000
    C114     C        0.02964    0.56381    0.09061    1.000
    N19      N        0.89466    0.54358    0.17705    1.000
    N20      N        0.91741    0.46669    0.18134    1.000
    N21      N        0.95549    0.48814    0.16253    1.000
    C115     C        0.95794    0.57736    0.14489    1.000
    C116     C        0.91844    0.61610    0.15767    1.000
    C117     C        0.75439    0.39980    0.09490    1.000
    C118     C        0.77199    0.66042    0.33716    1.000
    C119     C        0.11212    0.73340    0.03090    1.000
    Tb8      Tb       0.68948    0.29455    0.96936    1.000
    O43      O        0.62167    0.31170    0.04480    1.000
    O44      O        0.63583    0.18290    0.98580    1.000
    O45      O        0.29555    0.22390    0.37120    1.000
    O46      O        0.23482    0.14510    0.35690    1.000
    O47      O        0.27052    0.83280    0.06020    1.000
    O48      O        0.21508    0.91460    0.08300    1.000
    C120     C        0.35011    0.04128    0.18881    1.000
    C121     C        0.32475    0.97526    0.13894    1.000
    C122     C        0.28176    0.97060    0.15123    1.000
    C123     C        0.26414    0.03197    0.21339    1.000
    C124     C        0.28951    0.09799    0.26326    1.000
    C125     C        0.33249    0.10265    0.25097    1.000
    C126     C        0.49739    0.11847    0.11882    1.000
    C127     C        0.50246    0.21105    0.12054    1.000
    C128     C        0.53979    0.24897    0.09405    1.000
    C129     C        0.57204    0.19430    0.06584    1.000
    C130     C        0.56695    0.10172    0.06413    1.000
    C131     C        0.52964    0.06381    0.09061    1.000
    N22      N        0.39466    0.04358    0.17705    1.000
    N23      N        0.41741    0.96669    0.18134    1.000
    N24      N        0.45549    0.98814    0.16253    1.000
    C132     C        0.45794    0.07736    0.14489    1.000
    C133     C        0.41844    0.11610    0.15767    1.000
    C134     C        0.25439    0.89980    0.09490    1.000
    C135     C        0.27199    0.16042    0.33716    1.000
    C136     C        0.61212    0.23340    0.03090    1.000
