# CIF file generated by openbabel 3.1.0, see https://openbabel.org
data_I
_chemical_name_common 'image0'
_cell_length_a 21.8947
_cell_length_b 8.3062
_cell_length_c 23.2034
_cell_angle_alpha 90
_cell_angle_beta 100.053
_cell_angle_gamma 90
_space_group_name_H-M_alt 'P 1'
_space_group_name_Hall 'P 1'
loop_
    _symmetry_equiv_pos_as_xyz
    x,y,z
loop_
    _atom_site_label
    _atom_site_type_symbol
    _atom_site_fract_x
    _atom_site_fract_y
    _atom_site_fract_z
    _atom_site_occupancy
    C1       C        0.07880    0.83000    0.14920    1.000
    H1       H        0.07340    0.73180    0.16690    1.000
    C2       C        0.12250    0.93880    0.17870    1.000
    C3       C        0.12790    0.08740    0.15150    1.000
    C4       C        0.17090    0.21600    0.17680    1.000
    C5       C        0.09170    0.11970    0.09670    1.000
    H2       H        0.09570    0.21880    0.07910    1.000
    C6       C        0.05060    0.00980    0.06840    1.000
    C7       C        0.04400    0.86190    0.09580    1.000
    H3       H        0.01580    0.78590    0.07760    1.000
    C8       C        0.24010    0.79740    0.14180    1.000
    C9       C        0.21920    0.85080    0.07960    1.000
    C10      C        0.17910    0.75370    0.03980    1.000
    C11      C        0.15780    0.81110    0.98360    1.000
    H4       H        0.13070    0.74900    0.95730    1.000
    C12      C        0.17640    0.95810    0.96680    1.000
    H5       H        0.16170    0.99460    0.92910    1.000
    C13      C        0.21690    0.05440    0.00500    1.000
    C14      C        0.23710    0.99820    0.06136    1.000
    H6       H        0.26360    0.06200    0.08760    1.000
    H7       H        0.16960    0.59050    0.08940    1.000
    N1       N        0.23500    0.20350    0.98187    1.000
    N2       N        0.01790    0.05370    0.01230    1.000
    O1       O        0.26556    0.90110    0.17698    1.000
    O2       O        0.22910    0.65460    0.15482    1.000
    O3       O        0.16951    0.35280    0.15388    1.000
    O4       O        0.21081    0.19150    0.22431    1.000
    O5       O        0.15584    0.89610    0.22950    1.000
    O6       O        0.15920    0.60560    0.05279    1.000
    Tm1      Tm       0.25245    0.96525    0.27162    1.000
    C15      C        0.57880    0.33000    0.14920    1.000
    H8       H        0.57340    0.23180    0.16690    1.000
    C16      C        0.62250    0.43880    0.17870    1.000
    C17      C        0.62790    0.58740    0.15150    1.000
    C18      C        0.67090    0.71600    0.17680    1.000
    C19      C        0.59170    0.61970    0.09670    1.000
    H9       H        0.59570    0.71880    0.07910    1.000
    C20      C        0.55060    0.50980    0.06840    1.000
    C21      C        0.54400    0.36190    0.09580    1.000
    H10      H        0.51580    0.28590    0.07760    1.000
    C22      C        0.74010    0.29740    0.14180    1.000
    C23      C        0.71920    0.35080    0.07960    1.000
    C24      C        0.67910    0.25370    0.03980    1.000
    C25      C        0.65780    0.31110    0.98360    1.000
    H11      H        0.63070    0.24900    0.95730    1.000
    C26      C        0.67640    0.45810    0.96680    1.000
    H12      H        0.66170    0.49460    0.92910    1.000
    C27      C        0.71690    0.55440    0.00500    1.000
    C28      C        0.73710    0.49820    0.06136    1.000
    H13      H        0.76360    0.56200    0.08760    1.000
    H14      H        0.66960    0.09050    0.08940    1.000
    N3       N        0.73500    0.70350    0.98187    1.000
    N4       N        0.51790    0.55370    0.01230    1.000
    O7       O        0.76556    0.40110    0.17698    1.000
    O8       O        0.72910    0.15460    0.15482    1.000
    O9       O        0.66951    0.85280    0.15388    1.000
    O10      O        0.71081    0.69150    0.22431    1.000
    O11      O        0.65584    0.39610    0.22950    1.000
    O12      O        0.65920    0.10560    0.05279    1.000
    Tm2      Tm       0.75245    0.46525    0.27162    1.000
    C29      C        0.92120    0.83000    0.35080    1.000
    H15      H        0.92660    0.73180    0.33310    1.000
    C30      C        0.87750    0.93880    0.32130    1.000
    C31      C        0.87210    0.08740    0.34850    1.000
    C32      C        0.82910    0.21600    0.32320    1.000
    C33      C        0.90830    0.11970    0.40330    1.000
    H16      H        0.90430    0.21880    0.42090    1.000
    C34      C        0.94940    0.00980    0.43160    1.000
    C35      C        0.95600    0.86190    0.40420    1.000
    H17      H        0.98420    0.78590    0.42240    1.000
    C36      C        0.75990    0.79740    0.35820    1.000
    C37      C        0.78080    0.85080    0.42040    1.000
    C38      C        0.82090    0.75370    0.46020    1.000
    C39      C        0.84220    0.81110    0.51640    1.000
    H18      H        0.86930    0.74900    0.54270    1.000
    C40      C        0.82360    0.95810    0.53320    1.000
    H19      H        0.83830    0.99460    0.57090    1.000
    C41      C        0.78310    0.05440    0.49500    1.000
    C42      C        0.76290    0.99820    0.43864    1.000
    H20      H        0.73640    0.06200    0.41240    1.000
    H21      H        0.83040    0.59050    0.41060    1.000
    N5       N        0.76500    0.20350    0.51813    1.000
    N6       N        0.98210    0.05370    0.48770    1.000
    O13      O        0.73444    0.90110    0.32302    1.000
    O14      O        0.77090    0.65460    0.34518    1.000
    O15      O        0.83049    0.35280    0.34612    1.000
    O16      O        0.78919    0.19150    0.27569    1.000
    O17      O        0.84416    0.89610    0.27050    1.000
    O18      O        0.84080    0.60560    0.44721    1.000
    Tm3      Tm       0.74755    0.96525    0.22838    1.000
    C43      C        0.42120    0.33000    0.35080    1.000
    H22      H        0.42660    0.23180    0.33310    1.000
    C44      C        0.37750    0.43880    0.32130    1.000
    C45      C        0.37210    0.58740    0.34850    1.000
    C46      C        0.32910    0.71600    0.32320    1.000
    C47      C        0.40830    0.61970    0.40330    1.000
    H23      H        0.40430    0.71880    0.42090    1.000
    C48      C        0.44940    0.50980    0.43160    1.000
    C49      C        0.45600    0.36190    0.40420    1.000
    H24      H        0.48420    0.28590    0.42240    1.000
    C50      C        0.25990    0.29740    0.35820    1.000
    C51      C        0.28080    0.35080    0.42040    1.000
    C52      C        0.32090    0.25370    0.46020    1.000
    C53      C        0.34220    0.31110    0.51640    1.000
    H25      H        0.36930    0.24900    0.54270    1.000
    C54      C        0.32360    0.45810    0.53320    1.000
    H26      H        0.33830    0.49460    0.57090    1.000
    C55      C        0.28310    0.55440    0.49500    1.000
    C56      C        0.26290    0.49820    0.43864    1.000
    H27      H        0.23640    0.56200    0.41240    1.000
    H28      H        0.33040    0.09050    0.41060    1.000
    N7       N        0.26500    0.70350    0.51813    1.000
    N8       N        0.48210    0.55370    0.48770    1.000
    O19      O        0.23444    0.40110    0.32302    1.000
    O20      O        0.27090    0.15460    0.34518    1.000
    O21      O        0.33049    0.85280    0.34612    1.000
    O22      O        0.28919    0.69150    0.27569    1.000
    O23      O        0.34416    0.39610    0.27050    1.000
    O24      O        0.34080    0.10560    0.44721    1.000
    Tm4      Tm       0.24755    0.46525    0.22838    1.000
    C57      C        0.92120    0.17000    0.85080    1.000
    H29      H        0.92660    0.26820    0.83310    1.000
    C58      C        0.87750    0.06120    0.82130    1.000
    C59      C        0.87210    0.91260    0.84850    1.000
    C60      C        0.82910    0.78400    0.82320    1.000
    C61      C        0.90830    0.88030    0.90330    1.000
    H30      H        0.90430    0.78120    0.92090    1.000
    C62      C        0.94940    0.99020    0.93160    1.000
    C63      C        0.95600    0.13810    0.90420    1.000
    H31      H        0.98420    0.21410    0.92240    1.000
    C64      C        0.75990    0.20260    0.85820    1.000
    C65      C        0.78080    0.14920    0.92040    1.000
    C66      C        0.82090    0.24630    0.96020    1.000
    C67      C        0.84220    0.18890    0.01640    1.000
    H32      H        0.86930    0.25100    0.04270    1.000
    C68      C        0.82360    0.04190    0.03320    1.000
    H33      H        0.83830    0.00540    0.07090    1.000
    C69      C        0.78310    0.94560    0.99500    1.000
    C70      C        0.76290    0.00180    0.93864    1.000
    H34      H        0.73640    0.93800    0.91240    1.000
    H35      H        0.83040    0.40950    0.91060    1.000
    N9       N        0.76500    0.79650    0.01813    1.000
    N10      N        0.98210    0.94630    0.98770    1.000
    O25      O        0.73444    0.09890    0.82302    1.000
    O26      O        0.77090    0.34540    0.84518    1.000
    O27      O        0.83049    0.64720    0.84612    1.000
    O28      O        0.78919    0.80850    0.77569    1.000
    O29      O        0.84416    0.10390    0.77050    1.000
    O30      O        0.84080    0.39440    0.94721    1.000
    Tm5      Tm       0.74755    0.03475    0.72838    1.000
    C71      C        0.42120    0.67000    0.85080    1.000
    H36      H        0.42660    0.76820    0.83310    1.000
    C72      C        0.37750    0.56120    0.82130    1.000
    C73      C        0.37210    0.41260    0.84850    1.000
    C74      C        0.32910    0.28400    0.82320    1.000
    C75      C        0.40830    0.38030    0.90330    1.000
    H37      H        0.40430    0.28120    0.92090    1.000
    C76      C        0.44940    0.49020    0.93160    1.000
    C77      C        0.45600    0.63810    0.90420    1.000
    H38      H        0.48420    0.71410    0.92240    1.000
    C78      C        0.25990    0.70260    0.85820    1.000
    C79      C        0.28080    0.64920    0.92040    1.000
    C80      C        0.32090    0.74630    0.96020    1.000
    C81      C        0.34220    0.68890    0.01640    1.000
    H39      H        0.36930    0.75100    0.04270    1.000
    C82      C        0.32360    0.54190    0.03320    1.000
    H40      H        0.33830    0.50540    0.07090    1.000
    C83      C        0.28310    0.44560    0.99500    1.000
    C84      C        0.26290    0.50180    0.93864    1.000
    H41      H        0.23640    0.43800    0.91240    1.000
    H42      H        0.33040    0.90950    0.91060    1.000
    N11      N        0.26500    0.29650    0.01813    1.000
    N12      N        0.48210    0.44630    0.98770    1.000
    O31      O        0.23444    0.59890    0.82302    1.000
    O32      O        0.27090    0.84540    0.84518    1.000
    O33      O        0.33049    0.14720    0.84612    1.000
    O34      O        0.28919    0.30850    0.77569    1.000
    O35      O        0.34416    0.60390    0.77050    1.000
    O36      O        0.34080    0.89440    0.94721    1.000
    Tm6      Tm       0.24755    0.53475    0.72838    1.000
    C85      C        0.07880    0.17000    0.64920    1.000
    H43      H        0.07340    0.26820    0.66690    1.000
    C86      C        0.12250    0.06120    0.67870    1.000
    C87      C        0.12790    0.91260    0.65150    1.000
    C88      C        0.17090    0.78400    0.67680    1.000
    C89      C        0.09170    0.88030    0.59670    1.000
    H44      H        0.09570    0.78120    0.57910    1.000
    C90      C        0.05060    0.99020    0.56840    1.000
    C91      C        0.04400    0.13810    0.59580    1.000
    H45      H        0.01580    0.21410    0.57760    1.000
    C92      C        0.24010    0.20260    0.64180    1.000
    C93      C        0.21920    0.14920    0.57960    1.000
    C94      C        0.17910    0.24630    0.53980    1.000
    C95      C        0.15780    0.18890    0.48360    1.000
    H46      H        0.13070    0.25100    0.45730    1.000
    C96      C        0.17640    0.04190    0.46680    1.000
    H47      H        0.16170    0.00540    0.42910    1.000
    C97      C        0.21690    0.94560    0.50500    1.000
    C98      C        0.23710    0.00180    0.56136    1.000
    H48      H        0.26360    0.93800    0.58760    1.000
    H49      H        0.16960    0.40950    0.58940    1.000
    N13      N        0.23500    0.79650    0.48187    1.000
    N14      N        0.01790    0.94630    0.51230    1.000
    O37      O        0.26556    0.09890    0.67698    1.000
    O38      O        0.22910    0.34540    0.65482    1.000
    O39      O        0.16951    0.64720    0.65388    1.000
    O40      O        0.21081    0.80850    0.72431    1.000
    O41      O        0.15584    0.10390    0.72950    1.000
    O42      O        0.15920    0.39440    0.55279    1.000
    Tm7      Tm       0.25245    0.03475    0.77162    1.000
    C99      C        0.57880    0.67000    0.64920    1.000
    H50      H        0.57340    0.76820    0.66690    1.000
    C100     C        0.62250    0.56120    0.67870    1.000
    C101     C        0.62790    0.41260    0.65150    1.000
    C102     C        0.67090    0.28400    0.67680    1.000
    C103     C        0.59170    0.38030    0.59670    1.000
    H51      H        0.59570    0.28120    0.57910    1.000
    C104     C        0.55060    0.49020    0.56840    1.000
    C105     C        0.54400    0.63810    0.59580    1.000
    H52      H        0.51580    0.71410    0.57760    1.000
    C106     C        0.74010    0.70260    0.64180    1.000
    C107     C        0.71920    0.64920    0.57960    1.000
    C108     C        0.67910    0.74630    0.53980    1.000
    C109     C        0.65780    0.68890    0.48360    1.000
    H53      H        0.63070    0.75100    0.45730    1.000
    C110     C        0.67640    0.54190    0.46680    1.000
    H54      H        0.66170    0.50540    0.42910    1.000
    C111     C        0.71690    0.44560    0.50500    1.000
    C112     C        0.73710    0.50180    0.56136    1.000
    H55      H        0.76360    0.43800    0.58760    1.000
    H56      H        0.66960    0.90950    0.58940    1.000
    N15      N        0.73500    0.29650    0.48187    1.000
    N16      N        0.51790    0.44630    0.51230    1.000
    O43      O        0.76556    0.59890    0.67698    1.000
    O44      O        0.72910    0.84540    0.65482    1.000
    O45      O        0.66951    0.14720    0.65388    1.000
    O46      O        0.71081    0.30850    0.72431    1.000
    O47      O        0.65584    0.60390    0.72950    1.000
    O48      O        0.65920    0.89440    0.55279    1.000
    Tm8      Tm       0.75245    0.53475    0.77162    1.000
