# CIF file generated by openbabel 3.1.0, see https://openbabel.org
data_I
_chemical_name_common 'WAVQIV_ion_b'
_cell_length_a 27.1319
_cell_length_b 27.1319
_cell_length_c 27.1319
_cell_angle_alpha 90
_cell_angle_beta 90
_cell_angle_gamma 90
_space_group_name_H-M_alt 'P 1'
_space_group_name_Hall 'P 1'
loop_
    _symmetry_equiv_pos_as_xyz
    x,y,z
loop_
    _atom_site_label
    _atom_site_type_symbol
    _atom_site_fract_x
    _atom_site_fract_y
    _atom_site_fract_z
    _atom_site_occupancy
    In1      In       0.22442    0.31585    0.25716    1.000
    O2       O        0.25176    0.28311    0.19612    1.000
    O3       O        0.19773    0.34344    0.31897    1.000
    O4       O        0.16189    0.32846    0.22104    1.000
    O5       O        0.14324    0.25527    0.18432    1.000
    O6       O        0.25345    0.37971    0.23609    1.000
    C7       C        0.05213    0.29579    0.14839    1.000
    H8       H        0.05684    0.25635    0.14532    1.000
    C9       C        0.13337    0.30212    0.19403    1.000
    C10      C        0.08764    0.32490    0.17257    1.000
    C11      C        0.00940    0.31691    0.12813    1.000
    H12      H        0.98279    0.29267    0.11097    1.000
    C13      C        0.00074    0.36813    0.13070    1.000
    C14      C        0.03646    0.39722    0.15507    1.000
    H15      H        0.03219    0.43675    0.15750    1.000
    C16      C        0.07894    0.37593    0.17591    1.000
    H17      H        0.10525    0.39968    0.19424    1.000
    C18      C        0.29859    0.51003    0.16120    1.000
    H19      H        0.29406    0.51230    0.12170    1.000
    O20      O        0.29000    0.40532    0.30505    1.000
    C21      C        0.28105    0.46764    0.18522    1.000
    H22      H        0.26327    0.43925    0.16357    1.000
    C23      C        0.93336    0.43341    0.12886    1.000
    H24      H        0.94971    0.44963    0.16134    1.000
    C25      C        0.95510    0.39087    0.10811    1.000
    C26      C        0.34426    0.59217    0.16165    1.000
    C27      C        0.32350    0.54745    0.18744    1.000
    C28      C        0.27606    0.41310    0.26035    1.000
    C29      C        0.32179    0.61142    0.11881    1.000
    H30      H        0.28960    0.59327    0.10407    1.000
    C31      C        0.28858    0.46084    0.23607    1.000
    C32      C        0.31247    0.49839    0.26256    1.000
    H33      H        0.31928    0.49449    0.30170    1.000
    O34      O        0.26213    0.38458    0.35033    1.000
    C35      C        0.21602    0.37200    0.35156    1.000
    C36      C        0.32917    0.54113    0.23880    1.000
    H37      H        0.34691    0.56908    0.26096    1.000
    C38      C        0.13177    0.38300    0.38941    1.000
    H39      H        0.11532    0.36544    0.35756    1.000
    C40      C        0.18299    0.39108    0.39141    1.000
    C41      C        0.08767    0.43144    0.51462    1.000
    C42      C        0.04634    0.40204    0.52635    1.000
    H43      H        0.03803    0.37026    0.50383    1.000
    C44      C        0.20245    0.41364    0.43381    1.000
    H45      H        0.24181    0.41934    0.43729    1.000
    C46      C        0.10099    0.39685    0.42864    1.000
    H47      H        0.06174    0.39052    0.42504    1.000
    C48      C        0.17174    0.42697    0.47337    1.000
    H49      H        0.18862    0.44239    0.50605    1.000
    C50      C        0.12042    0.41856    0.47163    1.000
    N51      N        0.24856    0.33658    0.09342    1.000
    O52      O        0.16987    0.14042    0.21993    1.000
    O53      O        0.37955    0.38408    0.37899    1.000
    In54     In       0.27542    0.68437    0.75706    1.000
    O55      O        0.24839    0.71733    0.69601    1.000
    O56      O        0.30238    0.65626    0.81846    1.000
    O57      O        0.33775    0.67150    0.72062    1.000
    O58      O        0.35683    0.74469    0.68421    1.000
    O59      O        0.24622    0.62075    0.73578    1.000
    C60      C        0.44777    0.70381    0.64846    1.000
    H61      H        0.44308    0.74325    0.64507    1.000
    C62      C        0.36643    0.69778    0.69377    1.000
    C63      C        0.41209    0.67486    0.67257    1.000
    C64      C        0.49059    0.68252    0.62866    1.000
    H65      H        0.51734    0.70665    0.61158    1.000
    C66      C        0.49909    0.63129    0.63158    1.000
    C67      C        0.46317    0.60235    0.65571    1.000
    H68      H        0.46734    0.56280    0.65828    1.000
    C69      C        0.42060    0.62380    0.67611    1.000
    H70      H        0.39403    0.60019    0.69424    1.000
    C71      C        0.20176    0.49002    0.66098    1.000
    H72      H        0.20647    0.48748    0.62149    1.000
    O73      O        0.20971    0.59515    0.80478    1.000
    C74      C        0.21905    0.53254    0.68497    1.000
    H75      H        0.23674    0.56093    0.66318    1.000
    C76      C        0.56653    0.56607    0.63042    1.000
    H77      H        0.55015    0.55013    0.66303    1.000
    C78      C        0.54470    0.60840    0.60932    1.000
    C79      C        0.15623    0.40782    0.66162    1.000
    C80      C        0.17697    0.45259    0.68731    1.000
    C81      C        0.22360    0.58736    0.76005    1.000
    C82      C        0.17884    0.38832    0.61898    1.000
    H83      H        0.21124    0.40627    0.60440    1.000
    C84      C        0.21145    0.53942    0.73581    1.000
    C85      C        0.18759    0.50187    0.76232    1.000
    H86      H        0.18067    0.50596    0.80136    1.000
    O87      O        0.23771    0.61577    0.85026    1.000
    C88      C        0.28394    0.62795    0.85120    1.000
    C89      C        0.17112    0.45902    0.73862    1.000
    H90      H        0.15351    0.43103    0.76087    1.000
    C91      C        0.36815    0.61602    0.88858    1.000
    H92      H        0.38465    0.63299    0.85646    1.000
    C93      C        0.31687    0.60843    0.89085    1.000
    C94      C        0.41208    0.56905    0.01427    1.000
    C95      C        0.45340    0.59861    0.02572    1.000
    H96      H        0.46142    0.63049    0.00319    1.000
    C97      C        0.29733    0.58607    0.93335    1.000
    H98      H        0.25801    0.58043    0.93681    1.000
    C99      C        0.39887    0.60257    0.92793    1.000
    H100     H        0.43807    0.60883    0.92432    1.000
    C101     C        0.32801    0.57301    0.97300    1.000
    H102     H        0.31109    0.55793    0.00579    1.000
    C103     C        0.37932    0.58143    0.97117    1.000
    N104     N        0.26725    0.67589    0.59959    1.000
    O105     O        0.33054    0.85970    0.71984    1.000
    O106     O        0.12053    0.61671    0.87913    1.000
    In107    In       0.77535    0.81551    0.24339    1.000
    O108     O        0.74806    0.78267    0.30428    1.000
    O109     O        0.80241    0.84373    0.18178    1.000
    O110     O        0.83759    0.82847    0.27981    1.000
    O111     O        0.85658    0.75531    0.31637    1.000
    O112     O        0.74612    0.87940    0.26455    1.000
    C113     C        0.94767    0.79613    0.35187    1.000
    H114     H        0.94301    0.75669    0.35508    1.000
    C115     C        0.86619    0.80224    0.30678    1.000
    C116     C        0.91192    0.82518    0.32794    1.000
    C117     C        0.99053    0.81737    0.37164    1.000
    H118     H        0.01731    0.79316    0.38858    1.000
    C119     C        0.99903    0.86862    0.36897    1.000
    C120     C        0.96316    0.89762    0.34482    1.000
    H121     H        0.96737    0.93718    0.34231    1.000
    C122     C        0.92053    0.87620    0.32441    1.000
    H123     H        0.89403    0.89987    0.30626    1.000
    C124     C        0.70174    0.01049    0.33908    1.000
    H125     H        0.70637    0.01298    0.37859    1.000
    O126     O        0.70975    0.90496    0.19549    1.000
    C127     C        0.71895    0.96784    0.31522    1.000
    H128     H        0.73659    0.93948    0.33709    1.000
    C129     C        0.06637    0.93409    0.37093    1.000
    H130     H        0.05005    0.95045    0.33851    1.000
    C131     C        0.04460    0.89141    0.39151    1.000
    C132     C        0.65647    0.09296    0.33840    1.000
    C133     C        0.67713    0.04802    0.31272    1.000
    C134     C        0.72354    0.91281    0.24023    1.000
    C135     C        0.67854    0.11188    0.38158    1.000
    H136     H        0.71057    0.09362    0.39655    1.000
    C137     C        0.71146    0.96086    0.26436    1.000
    C138     C        0.68784    0.99850    0.23778    1.000
    H139     H        0.68105    0.99443    0.19865    1.000
    O140     O        0.73792    0.88447    0.15025    1.000
    C141     C        0.78406    0.87220    0.14910    1.000
    C142     C        0.67150    0.04151    0.26138    1.000
    H143     H        0.65413    0.06950    0.23897    1.000
    C144     C        0.86822    0.88384    0.11120    1.000
    H145     H        0.88481    0.86660    0.14312    1.000
    C146     C        0.81695    0.89160    0.10926    1.000
    C147     C        0.91177    0.93146    0.98548    1.000
    C148     C        0.95306    0.90197    0.97377    1.000
    H149     H        0.96120    0.87008    0.99622    1.000
    C150     C        0.79729    0.91417    0.06692    1.000
    H151     H        0.75794    0.91993    0.06363    1.000
    C152     C        0.89880    0.89754    0.07177    1.000
    H153     H        0.93805    0.89128    0.07521    1.000
    C154     C        0.82782    0.92741    0.02718    1.000
    H155     H        0.81078    0.94273    0.99454    1.000
    C156     C        0.87913    0.91893    0.02868    1.000
    N157     N        0.74666    0.82930    0.41318    1.000
    O158     O        0.83068    0.64043    0.28044    1.000
    O159     O        0.62095    0.88336    0.12070    1.000
    In160    In       0.72506    0.18258    0.74337    1.000
    O161     O        0.75220    0.21580    0.80377    1.000
    O162     O        0.69772    0.15324    0.68270    1.000
    O163     O        0.66206    0.17283    0.78130    1.000
    O164     O        0.64092    0.24528    0.81531    1.000
    O165     O        0.75444    0.11960    0.76429    1.000
    C166     C        0.55131    0.20514    0.85252    1.000
    H167     H        0.55617    0.24462    0.85587    1.000
    C168     C        0.63259    0.19951    0.80736    1.000
    C169     C        0.58712    0.17635    0.82855    1.000
    C170     C        0.50861    0.18362    0.87212    1.000
    H171     H        0.48156    0.20769    0.88902    1.000
    C172     C        0.50049    0.13229    0.86930    1.000
    C173     C        0.53653    0.10346    0.84536    1.000
    H174     H        0.53264    0.06382    0.84276    1.000
    C175     C        0.57899    0.12521    0.82509    1.000
    H176     H        0.60578    0.10174    0.80709    1.000
    C177     C        0.79960    0.98921    0.83936    1.000
    H178     H        0.79496    0.98681    0.87883    1.000
    O179     O        0.79145    0.09474    0.69546    1.000
    C180     C        0.78250    0.03175    0.81527    1.000
    H181     H        0.76491    0.06010    0.83706    1.000
    C182     C        0.43348    0.06650    0.87099    1.000
    H183     H        0.44993    0.05037    0.83850    1.000
    C184     C        0.45504    0.10918    0.89175    1.000
    C185     C        0.84470    0.90692    0.83894    1.000
    C186     C        0.82404    0.95159    0.81310    1.000
    C187     C        0.77745    0.08664    0.73997    1.000
    C188     C        0.82242    0.88775    0.88188    1.000
    H189     H        0.79027    0.90590    0.89666    1.000
    C190     C        0.78991    0.03865    0.76426    1.000
    C191     C        0.81379    0.00087    0.73794    1.000
    H192     H        0.82061    0.00475    0.69888    1.000
    O193     O        0.76321    0.11638    0.64811    1.000
    C194     C        0.71662    0.12693    0.64850    1.000
    C195     C        0.82997    0.95788    0.76175    1.000
    H196     H        0.84739    0.92980    0.73950    1.000
    C197     C        0.63202    0.11545    0.61129    1.000
    H198     H        0.61567    0.13294    0.64330    1.000
    C199     C        0.68332    0.10769    0.60889    1.000
    C200     C        0.58749    0.06812    0.48570    1.000
    C201     C        0.54627    0.09772    0.47396    1.000
    H202     H        0.53784    0.12936    0.49671    1.000
    C203     C        0.70255    0.08530    0.56630    1.000
    H204     H        0.74189    0.07971    0.56265    1.000
    C205     C        0.60113    0.10189    0.57208    1.000
    H206     H        0.56198    0.10863    0.57562    1.000
    C207     C        0.67165    0.07213    0.52680    1.000
    H208     H        0.68853    0.05726    0.49390    1.000
    C209     C        0.62038    0.08043    0.52883    1.000
    N210     N        0.76102    0.17624    0.90936    1.000
    O211     O        0.71350    0.32277    0.85944    1.000
    O212     O        0.88022    0.11666    0.62176    1.000
    In213    In       0.25790    0.22569    0.31717    1.000
    O214     O        0.19688    0.25224    0.28361    1.000
    O215     O        0.31730    0.20190    0.35274    1.000
    O216     O        0.22274    0.16222    0.32925    1.000
    O217     O        0.18535    0.14297    0.25667    1.000
    O218     O        0.23517    0.25510    0.38063    1.000
    C219     C        0.15042    0.05215    0.29684    1.000
    H220     H        0.14755    0.05675    0.25740    1.000
    C221     C        0.19582    0.13336    0.30328    1.000
    C222     C        0.17466    0.08770    0.32604    1.000
    C223     C        0.12971    0.00977    0.31792    1.000
    H224     H        0.11254    0.98321    0.29363    1.000
    C225     C        0.13185    0.00134    0.36913    1.000
    C226     C        0.15625    0.03697    0.39832    1.000
    H227     H        0.15830    0.03271    0.43787    1.000
    C228     C        0.17757    0.07919    0.37712    1.000
    H229     H        0.19577    0.10555    0.40095    1.000
    C230     C        0.15867    0.29986    0.51292    1.000
    H231     H        0.11932    0.29433    0.51635    1.000
    O232     O        0.29414    0.30862    0.40237    1.000
    C233     C        0.18182    0.28353    0.46953    1.000
    H234     H        0.15967    0.26595    0.44142    1.000
    C235     C        0.12974    0.93394    0.43404    1.000
    H236     H        0.16228    0.95013    0.45022    1.000
    C237     C        0.10899    0.95589    0.39164    1.000
    C238     C        0.16026    0.34578    0.59514    1.000
    C239     C        0.18533    0.32504    0.54993    1.000
    C240     C        0.25534    0.28406    0.41199    1.000
    C241     C        0.11769    0.32325    0.61485    1.000
    H242     H        0.10306    0.29090    0.59699    1.000
    C243     C        0.23210    0.29269    0.46121    1.000
    C244     C        0.25916    0.31591    0.49888    1.000
    H245     H        0.29811    0.32332    0.49409    1.000
    O246     O        0.37088    0.26504    0.36228    1.000
    C247     C        0.35824    0.21936    0.36843    1.000
    C248     C        0.23637    0.33136    0.54250    1.000
    H249     H        0.25917    0.34881    0.57023    1.000
    C250     C        0.39187    0.13358    0.38287    1.000
    H251     H        0.35973    0.11798    0.36503    1.000
    C252     C        0.39582    0.18489    0.38943    1.000
    C253     C        0.51597    0.08730    0.43282    1.000
    C254     C        0.52745    0.04609    0.40343    1.000
    H255     H        0.50490    0.03790    0.37161    1.000
    C256     C        0.43867    0.20341    0.41204    1.000
    H257     H        0.44331    0.24268    0.41731    1.000
    C258     C        0.43009    0.10193    0.39767    1.000
    H259     H        0.42560    0.06276    0.39168    1.000
    C260     C        0.47689    0.17190    0.42669    1.000
    H261     H        0.50992    0.18811    0.44204    1.000
    C262     C        0.47355    0.12058    0.41942    1.000
    N263     N        0.09108    0.22811    0.34731    1.000
    O264     O        0.21912    0.16806    0.14185    1.000
    In266    In       0.75801    0.27438    0.68372    1.000
    O267     O        0.69796    0.24475    0.71355    1.000
    O268     O        0.81731    0.29876    0.64821    1.000
    O269     O        0.72250    0.33751    0.67309    1.000
    O270     O        0.68049    0.35351    0.74390    1.000
    O271     O        0.73558    0.24599    0.61926    1.000
    C272     C        0.64870    0.44691    0.70531    1.000
    H273     H        0.64512    0.44175    0.74478    1.000
    C274     C        0.69395    0.36527    0.69861    1.000
    C275     C        0.67347    0.41146    0.67617    1.000
    C276     C        0.62853    0.48981    0.68410    1.000
    H277     H        0.61108    0.51611    0.70827    1.000
    C278     C        0.63160    0.49848    0.63291    1.000
    C279     C        0.65623    0.46297    0.60391    1.000
    H280     H        0.65889    0.46700    0.56439    1.000
    C281     C        0.67704    0.42049    0.62521    1.000
    H282     H        0.69524    0.39408    0.60176    1.000
    C283     C        0.65820    0.19965    0.48815    1.000
    H284     H        0.61880    0.20482    0.48506    1.000
    O285     O        0.79296    0.19104    0.59848    1.000
    C286     C        0.68142    0.21612    0.53150    1.000
    H287     H        0.65948    0.23346    0.55996    1.000
    C288     C        0.62981    0.56556    0.56722    1.000
    H289     H        0.66234    0.54921    0.55114    1.000
    C290     C        0.60910    0.54398    0.60992    1.000
    C291     C        0.65996    0.15430    0.40552    1.000
    C292     C        0.68493    0.17475    0.45095    1.000
    C293     C        0.75498    0.21657    0.58825    1.000
    C294     C        0.61782    0.17738    0.38560    1.000
    H295     H        0.60314    0.20944    0.40391    1.000
    C296     C        0.73174    0.20747    0.53937    1.000
    C297     C        0.75892    0.18444    0.50163    1.000
    H298     H        0.79803    0.17739    0.50607    1.000
    O299     O        0.87006    0.23540    0.63665    1.000
    C300     C        0.85767    0.28119    0.63139    1.000
    C301     C        0.73606    0.16888    0.45805    1.000
    H302     H        0.75873    0.15164    0.43010    1.000
    C303     C        0.89162    0.36718    0.61720    1.000
    H304     H        0.85977    0.38282    0.63533    1.000
    C305     C        0.89509    0.31581    0.61048    1.000
    C306     C        0.01588    0.41282    0.56718    1.000
    C307     C        0.02733    0.45435    0.59629    1.000
    H308     H        0.00457    0.46287    0.62787    1.000
    C309     C        0.93784    0.29712    0.58768    1.000
    H310     H        0.94252    0.25782    0.58239    1.000
    C311     C        0.93000    0.39867    0.60226    1.000
    H312     H        0.92570    0.43780    0.60828    1.000
    C313     C        0.97624    0.32847    0.57302    1.000
    H314     H        0.00920    0.31207    0.55756    1.000
    C315     C        0.97333    0.37976    0.58052    1.000
    N316     N        0.57941    0.27030    0.66482    1.000
    In319    In       0.24259    0.77453    0.81732    1.000
    O320     O        0.30328    0.74797    0.78344    1.000
    O321     O        0.18338    0.79873    0.85334    1.000
    O322     O        0.27860    0.83749    0.82954    1.000
    O323     O        0.31569    0.85694    0.75683    1.000
    O324     O        0.26552    0.74499    0.88055    1.000
    C325     C        0.35050    0.94774    0.79706    1.000
    H326     H        0.35337    0.94315    0.75759    1.000
    C327     C        0.30562    0.86634    0.80360    1.000
    C328     C        0.32666    0.91208    0.82637    1.000
    C329     C        0.37076    0.99043    0.81804    1.000
    H330     H        0.38767    0.01711    0.79372    1.000
    C331     C        0.36851    0.99887    0.86927    1.000
    C332     C        0.34446    0.96311    0.89850    1.000
    H333     H        0.34232    0.96736    0.93809    1.000
    C334     C        0.32360    0.92061    0.87734    1.000
    H335     H        0.30560    0.89415    0.90116    1.000
    C336     C        0.34195    0.69999    0.01277    1.000
    H337     H        0.38125    0.70559    0.01616    1.000
    O338     O        0.20642    0.69172    0.90239    1.000
    C339     C        0.31878    0.71662    0.96948    1.000
    H340     H        0.34070    0.73476    0.94161    1.000
    C341     C        0.37027    0.06632    0.93418    1.000
    H342     H        0.33771    0.04990    0.95037    1.000
    C343     C        0.39105    0.04452    0.89175    1.000
    C344     C        0.34023    0.65397    0.09492    1.000
    C345     C        0.31525    0.67454    0.04961    1.000
    C346     C        0.24532    0.71612    0.91194    1.000
    C347     C        0.38251    0.67685    0.11471    1.000
    H348     H        0.39709    0.70918    0.09679    1.000
    C349     C        0.26855    0.70731    0.96108    1.000
    C350     C        0.24148    0.68379    0.99857    1.000
    H351     H        0.20256    0.67636    0.99378    1.000
    O352     O        0.12968    0.73573    0.86279    1.000
    C353     C        0.14242    0.78136    0.86916    1.000
    C354     C        0.26424    0.66820    0.04219    1.000
    H355     H        0.24152    0.65066    0.06983    1.000
    C356     C        0.10922    0.86721    0.88567    1.000
    H357     H        0.14204    0.88314    0.86950    1.000
    C358     C        0.10473    0.81573    0.89040    1.000
    C359     C        0.98382    0.91285    0.93317    1.000
    C360     C        0.97265    0.95450    0.90415    1.000
    H361     H        0.99581    0.96317    0.87289    1.000
    C362     C        0.06125    0.79696    0.91162    1.000
    H363     H        0.05616    0.75760    0.91571    1.000
    C364     C        0.07064    0.89874    0.90016    1.000
    H365     H        0.07544    0.93808    0.89549    1.000
    C366     C        0.02287    0.82835    0.92618    1.000
    H367     H        0.98946    0.81194    0.94048    1.000
    C368     C        0.02649    0.87976    0.92009    1.000
    N369     N        0.41781    0.77062    0.86609    1.000
    O370     O        0.28108    0.83260    0.64203    1.000
    In372    In       0.74253    0.72540    0.18310    1.000
    O373     O        0.80314    0.75200    0.21698    1.000
    O374     O        0.68355    0.70153    0.14648    1.000
    O375     O        0.77812    0.66216    0.17097    1.000
    O376     O        0.81530    0.64274    0.24363    1.000
    O377     O        0.76598    0.75480    0.12010    1.000
    C378     C        0.85024    0.55192    0.20325    1.000
    H379     H        0.85334    0.55659    0.24271    1.000
    C380     C        0.80503    0.63324    0.19693    1.000
    C381     C        0.82604    0.58749    0.17411    1.000
    C382     C        0.87060    0.50933    0.18213    1.000
    H383     H        0.88775    0.48274    0.20640    1.000
    C384     C        0.86813    0.50087    0.13095    1.000
    C385     C        0.84382    0.53652    0.10180    1.000
    H386     H        0.84154    0.53231    0.06223    1.000
    C387     C        0.82285    0.57890    0.12307    1.000
    H388     H        0.80464    0.60533    0.09935    1.000
    C389     C        0.84320    0.80035    0.98846    1.000
    H390     H        0.88262    0.79540    0.98522    1.000
    O391     O        0.70711    0.80828    0.09793    1.000
    C392     C        0.82008    0.78401    0.03193    1.000
    H393     H        0.84224    0.76703    0.06048    1.000
    C394     C        0.86988    0.43352    0.06584    1.000
    H395     H        0.83736    0.44987    0.04978    1.000
    C396     C        0.89077    0.45532    0.10826    1.000
    C397     C        0.84103    0.84529    0.90573    1.000
    C398     C        0.81624    0.82481    0.95113    1.000
    C399     C        0.74603    0.78373    0.08863    1.000
    C400     C        0.88320    0.82239    0.88582    1.000
    H401     H        0.89784    0.79010    0.90382    1.000
    C402     C        0.76957    0.79239    0.03968    1.000
    C403     C        0.74233    0.81483    0.00169    1.000
    H404     H        0.70322    0.82157    0.00611    1.000
    O405     O        0.62994    0.76455    0.13699    1.000
    C406     C        0.64274    0.71900    0.13046    1.000
    C407     C        0.76510    0.83032    0.95807    1.000
    H408     H        0.74228    0.84708    0.93000    1.000
    C409     C        0.60998    0.63327    0.11275    1.000
    H410     H        0.64303    0.61732    0.12835    1.000
    C411     C        0.60518    0.68479    0.10880    1.000
    C412     C        0.48431    0.58776    0.06618    1.000
    C413     C        0.47321    0.54623    0.09541    1.000
    H414     H        0.49654    0.53763    0.12657    1.000
    C415     C        0.56151    0.70364    0.08803    1.000
    H416     H        0.55622    0.74301    0.08443    1.000
    C417     C        0.57140    0.60177    0.09828    1.000
    H418     H        0.57637    0.56239    0.10241    1.000
    C419     C        0.52312    0.67228    0.07346    1.000
    H420     H        0.48952    0.68868    0.05959    1.000
    C421     C        0.52700    0.62083    0.07900    1.000
    N422     N        0.90782    0.75184    0.18389    1.000
    O423     O        0.78092    0.66762    0.35850    1.000
    In425    In       0.31605    0.25920    0.22417    1.000
    O426     O        0.28488    0.19784    0.25332    1.000
    O427     O        0.34399    0.32113    0.19805    1.000
    O428     O        0.32809    0.22218    0.16191    1.000
    O429     O        0.25590    0.18363    0.14366    1.000
    O430     O        0.38495    0.24359    0.24585    1.000
    C431     C        0.29595    0.14923    0.05254    1.000
    H432     H        0.25642    0.14626    0.05716    1.000
    C433     C        0.30236    0.19440    0.13366    1.000
    C434     C        0.32516    0.17320    0.08806    1.000
    C435     C        0.31703    0.12899    0.00991    1.000
    H436     H        0.29273    0.11200    0.98319    1.000
    C437     C        0.36817    0.13138    0.00153    1.000
    C438     C        0.39740    0.15547    0.03724    1.000
    H439     H        0.43697    0.15764    0.03304    1.000
    C440     C        0.37617    0.17636    0.07958    1.000
    H441     H        0.39992    0.19450    0.10608    1.000
    C442     C        0.51439    0.16034    0.29303    1.000
    H443     H        0.51777    0.12132    0.28583    1.000
    O444     O        0.39903    0.28511    0.31658    1.000
    C445     C        0.47180    0.18437    0.27582    1.000
    H446     H        0.44449    0.16340    0.25585    1.000
    C447     C        0.43317    0.12970    0.93427    1.000
    H448     H        0.44927    0.16224    0.95061    1.000
    C449     C        0.39082    0.10879    0.95603    1.000
    C450     C        0.59477    0.15972    0.34232    1.000
    C451     C        0.55035    0.18573    0.32099    1.000
    C452     C        0.41344    0.25663    0.28121    1.000
    C453     C        0.61446    0.11728    0.31957    1.000
    H454     H        0.59703    0.10307    0.28681    1.000
    C455     C        0.46299    0.23394    0.28755    1.000
    C456     C        0.49953    0.25989    0.31352    1.000
    H457     H        0.49397    0.29828    0.32310    1.000
    O458     O        0.37019    0.36543    0.26267    1.000
    C459     C        0.36659    0.35821    0.21626    1.000
    C460     C        0.54275    0.23651    0.32921    1.000
    H461     H        0.56973    0.25851    0.34853    1.000
    C462     C        0.38120    0.39243    0.13085    1.000
    H463     H        0.36307    0.36060    0.11493    1.000
    C464     C        0.38776    0.39603    0.18218    1.000
    C465     C        0.43190    0.51618    0.08534    1.000
    C466     C        0.40186    0.52806    0.04458    1.000
    H467     H        0.37006    0.50543    0.03657    1.000
    C468     C        0.41171    0.43805    0.20088    1.000
    H469     H        0.41726    0.44232    0.24014    1.000
    C470     C        0.39677    0.43049    0.09938    1.000
    H471     H        0.39094    0.42623    0.06013    1.000
    C472     C        0.42695    0.47621    0.16955    1.000
    H473     H        0.44313    0.50875    0.18598    1.000
    C474     C        0.41897    0.47352    0.11831    1.000
    N475     N        0.33701    0.08275    0.23728    1.000
    O476     O        0.14102    0.21796    0.17014    1.000
    In478    In       0.68388    0.75838    0.27585    1.000
    O479     O        0.71551    0.69726    0.24680    1.000
    O480     O        0.65549    0.82016    0.30182    1.000
    O481     O        0.67167    0.72083    0.33801    1.000
    O482     O        0.74399    0.68270    0.35649    1.000
    O483     O        0.61560    0.74243    0.25354    1.000
    C484     C        0.70376    0.64774    0.44762    1.000
    H485     H        0.74321    0.64469    0.44287    1.000
    C486     C        0.69739    0.69307    0.36631    1.000
    C487     C        0.67457    0.67180    0.41200    1.000
    C488     C        0.68274    0.62766    0.49044    1.000
    H489     H        0.70709    0.61070    0.51706    1.000
    C490     C        0.63159    0.63022    0.49909    1.000
    C491     C        0.60238    0.65440    0.46336    1.000
    H492     H        0.56284    0.65680    0.46766    1.000
    C493     C        0.62356    0.67512    0.42078    1.000
    H494     H        0.59981    0.69334    0.39437    1.000
    C495     C        0.48773    0.65813    0.20407    1.000
    H496     H        0.48502    0.61872    0.20938    1.000
    O497     O        0.60156    0.78423    0.18292    1.000
    C498     C        0.53049    0.68200    0.22107    1.000
    H499     H        0.55886    0.66053    0.23900    1.000
    C500     C        0.56654    0.62875    0.56661    1.000
    H501     H        0.55030    0.66108    0.55005    1.000
    C502     C        0.60903    0.60788    0.54492    1.000
    C503     C        0.40606    0.65864    0.15744    1.000
    C504     C        0.45070    0.68429    0.17840    1.000
    C505     C        0.58730    0.75543    0.21808    1.000
    C506     C        0.38663    0.61608    0.18008    1.000
    H507     H        0.40453    0.60161    0.21251    1.000
    C508     C        0.53811    0.73225    0.21151    1.000
    C509     C        0.50065    0.75876    0.18752    1.000
    H510     H        0.50552    0.79757    0.17945    1.000
    O511     O        0.62947    0.86452    0.23702    1.000
    C512     C        0.63286    0.85721    0.28345    1.000
    C513     C        0.45738    0.73543    0.17196    1.000
    H514     H        0.42962    0.75773    0.15407    1.000
    C515     C        0.61650    0.89088    0.36883    1.000
    H516     H        0.63266    0.85819    0.38489    1.000
    C517     C        0.61172    0.89519    0.31738    1.000
    C518     C        0.56821    0.01559    0.41415    1.000
    C519     C        0.59767    0.02697    0.45550    1.000
    H520     H        0.62896    0.00387    0.46403    1.000
    C521     C        0.58963    0.93814    0.29838    1.000
    H522     H        0.58536    0.94301    0.25903    1.000
    C523     C        0.60145    0.92921    0.40022    1.000
    H524     H        0.60594    0.92441    0.43956    1.000
    C525     C        0.57472    0.97644    0.32967    1.000
    H526     H        0.55993    0.00959    0.31321    1.000
    C527     C        0.58115    0.97306    0.38110    1.000
    N528     N        0.66973    0.57547    0.24302    1.000
    O529     O        0.85887    0.71797    0.33051    1.000
    In531    In       0.81546    0.24231    0.77552    1.000
    O532     O        0.78064    0.30305    0.74885    1.000
    O533     O        0.84449    0.18125    0.80285    1.000
    O534     O        0.82788    0.27962    0.83699    1.000
    O535     O        0.75329    0.31440    0.85566    1.000
    O536     O        0.88357    0.25944    0.75278    1.000
    C537     C        0.79514    0.35218    0.94644    1.000
    H538     H        0.75574    0.35568    0.94170    1.000
    C539     C        0.80135    0.30631    0.86524    1.000
    C540     C        0.82410    0.32803    0.91078    1.000
    C541     C        0.81636    0.37177    0.98944    1.000
    H542     H        0.79217    0.38875    0.01621    1.000
    C543     C        0.86756    0.36870    0.99815    1.000
    C544     C        0.89649    0.34453    0.96232    1.000
    H545     H        0.93603    0.34171    0.96672    1.000
    C546     C        0.87512    0.32431    0.91958    1.000
    H547     H        0.89885    0.30599    0.89324    1.000
    C548     C        0.01172    0.34318    0.70314    1.000
    H549     H        0.01437    0.38266    0.70765    1.000
    O550     O        0.89929    0.21545    0.68401    1.000
    C551     C        0.96875    0.31959    0.72006    1.000
    H552     H        0.93984    0.34138    0.73686    1.000
    C553     C        0.93307    0.37023    0.06559    1.000
    H554     H        0.94920    0.33771    0.04921    1.000
    C555     C        0.89044    0.39097    0.04387    1.000
    C556     C        0.09395    0.34187    0.65733    1.000
    C557     C        0.04910    0.31660    0.67831    1.000
    C558     C        0.91267    0.24552    0.71833    1.000
    C559     C        0.11356    0.38434    0.67984    1.000
    H560     H        0.09548    0.39913    0.71210    1.000
    C561     C        0.96167    0.26901    0.71170    1.000
    C562     C        0.99939    0.24215    0.68863    1.000
    H563     H        0.99481    0.20312    0.68141    1.000
    O564     O        0.87106    0.13639    0.73816    1.000
    C565     C        0.86740    0.14413    0.78462    1.000
    C566     C        0.04264    0.26534    0.67287    1.000
    H567     H        0.07062    0.24290    0.65564    1.000
    C568     C        0.88206    0.10940    0.87015    1.000
    H569     H        0.86439    0.14133    0.88632    1.000
    C570     C        0.88864    0.10622    0.81875    1.000
    C571     C        0.93149    0.98464    0.91456    1.000
    C572     C        0.90147    0.97258    0.95534    1.000
    H573     H        0.86971    0.99524    0.96344    1.000
    C574     C        0.91237    0.06415    0.79979    1.000
    H575     H        0.91822    0.06027    0.76056    1.000
    C576     C        0.89702    0.07081    0.90130    1.000
    H577     H        0.89115    0.07474    0.94057    1.000
    C578     C        0.92700    0.02551    0.83076    1.000
    H579     H        0.94297    0.99299    0.81403    1.000
    C580     C        0.91883    0.02771    0.88198    1.000
    N581     N        0.81758    0.42473    0.76822    1.000
    O582     O        0.65481    0.34662    0.77517    1.000
    In584    In       0.18422    0.74141    0.72432    1.000
    O585     O        0.21569    0.80261    0.75348    1.000
    O586     O        0.15595    0.67963    0.69822    1.000
    O587     O        0.17221    0.77839    0.66196    1.000
    O588     O        0.24438    0.81688    0.64373    1.000
    O589     O        0.11568    0.75732    0.74604    1.000
    C590     C        0.20423    0.85112    0.55230    1.000
    H591     H        0.24370    0.85421    0.55695    1.000
    C592     C        0.19794    0.80610    0.63368    1.000
    C593     C        0.17513    0.82712    0.58798    1.000
    C594     C        0.18307    0.87120    0.50959    1.000
    H595     H        0.20730    0.88823    0.48290    1.000
    C596     C        0.13185    0.86867    0.50123    1.000
    C597     C        0.10275    0.84447    0.53697    1.000
    H598     H        0.06319    0.84216    0.53279    1.000
    C599     C        0.12408    0.82374    0.57942    1.000
    H600     H        0.10043    0.80561    0.60591    1.000
    C601     C        0.98774    0.84123    0.79578    1.000
    H602     H        0.98500    0.88066    0.79065    1.000
    O603     O        0.10154    0.71574    0.81680    1.000
    C604     C        0.03032    0.81745    0.77836    1.000
    H605     H        0.05846    0.83899    0.76022    1.000
    C606     C        0.06658    0.87066    0.43392    1.000
    H607     H        0.05046    0.83805    0.45018    1.000
    C608     C        0.10906    0.89134    0.45578    1.000
    C609     C        0.90649    0.84052    0.84291    1.000
    C610     C        0.95094    0.81495    0.82166    1.000
    C611     C        0.08730    0.74431    0.78146    1.000
    C612     C        0.88697    0.88301    0.82035    1.000
    H613     H        0.90477    0.89743    0.78785    1.000
    C614     C        0.03804    0.76723    0.78785    1.000
    C615     C        0.00077    0.74058    0.81194    1.000
    H616     H        0.00576    0.70177    0.81988    1.000
    O617     O        0.12954    0.63545    0.76286    1.000
    C618     C        0.13313    0.64270    0.71645    1.000
    C619     C        0.95761    0.76382    0.82790    1.000
    H620     H        0.92999    0.74149    0.84595    1.000
    C621     C        0.11729    0.60899    0.63097    1.000
    H622     H        0.13389    0.64152    0.61492    1.000
    C623     C        0.11198    0.60485    0.68241    1.000
    C624     C        0.06835    0.48445    0.58572    1.000
    C625     C        0.09805    0.47260    0.54470    1.000
    H626     H        0.12971    0.49537    0.53640    1.000
    C627     C        0.08932    0.56218    0.70129    1.000
    H628     H        0.08452    0.55748    0.74062    1.000
    C629     C        0.10220    0.57067    0.59955    1.000
    H630     H        0.10711    0.57522    0.56021    1.000
    C631     C        0.07439    0.52390    0.66998    1.000
    H632     H        0.05917    0.49093    0.68644    1.000
    C633     C        0.08135    0.52706    0.61864    1.000
    N634     N        0.16278    0.92319    0.75185    1.000
    O635     O        0.35902    0.78201    0.66979    1.000
    Nd637    Nd       0.21351    0.21271    0.21350    1.000
    Nd638    Nd       0.33052    0.33434    0.33102    1.000
    O639     O        0.28387    0.28498    0.28417    1.000
    Nd640    Nd       0.28685    0.78759    0.71349    1.000
    Nd641    Nd       0.16963    0.66629    0.83109    1.000
    O642     O        0.21629    0.71548    0.78418    1.000
    Nd643    Nd       0.78666    0.71239    0.28690    1.000
    Nd644    Nd       0.66980    0.83377    0.16897    1.000
    O645     O        0.71618    0.78449    0.21611    1.000
    Nd646    Nd       0.70867    0.28248    0.78517    1.000
    Nd647    Nd       0.83110    0.16612    0.66964    1.000
    O648     O        0.78432    0.21506    0.71636    1.000
    O649     O        0.68690    0.55758    0.19975    1.000
    O650     O        0.64504    0.61745    0.23237    1.000
    O651     O        0.70961    0.58872    0.26989    1.000
    O652     O        0.30903    0.64940    0.59329    1.000
    O653     O        0.27070    0.71557    0.56958    1.000
    O654     O        0.22977    0.64795    0.58224    1.000
    O655     O        0.39431    0.80819    0.88899    1.000
    O656     O        0.38306    0.73666    0.85493    1.000
    O657     O        0.43467    0.78859    0.82273    1.000
    O658     O        0.52972    0.27351    0.66222    1.000
    O659     O        0.59746    0.31374    0.64824    1.000
    O660     O        0.59099    0.26752    0.71323    1.000
    O661     O        0.75398    0.12812    0.92044    1.000
    O662     O        0.78857    0.19556    0.94616    1.000
    O663     O        0.71632    0.19823    0.91185    1.000
    O664     O        0.77013    0.41156    0.77598    1.000
    O665     O        0.82449    0.46790    0.79222    1.000
    O666     O        0.84586    0.39079    0.79138    1.000
    O667     O        0.15374    0.95479    0.78935    1.000
    O668     O        0.21227    0.91753    0.74948    1.000
    O669     O        0.14399    0.87910    0.76550    1.000
    O670     O        0.77599    0.81232    0.44976    1.000
    O671     O        0.73130    0.87469    0.42700    1.000
    O672     O        0.70627    0.80009    0.41260    1.000
    O673     O        0.24204    0.28794    0.08453    1.000
    O674     O        0.25593    0.35835    0.04916    1.000
    O675     O        0.20515    0.35389    0.11083    1.000
    O676     O        0.37334    0.05003    0.22748    1.000
    O677     O        0.35934    0.12548    0.24987    1.000
    O678     O        0.31327    0.09114    0.19423    1.000
    O679     O        0.05789    0.19090    0.34672    1.000
    O680     O        0.13248    0.20986    0.36819    1.000
    O681     O        0.07334    0.26267    0.37860    1.000
    O682     O        0.94044    0.75634    0.22134    1.000
    O683     O        0.90171    0.70298    0.17601    1.000
    O684     O        0.93004    0.77027    0.14322    1.000
