# CIF file generated by openbabel 3.1.0, see https://openbabel.org
data_I
_chemical_name_common 'image0'
_cell_length_a 6.5886
_cell_length_b 16.7607
_cell_length_c 11.7157
_cell_angle_alpha 90
_cell_angle_beta 95.644
_cell_angle_gamma 90
_space_group_name_H-M_alt 'P 1'
_space_group_name_Hall 'P 1'
loop_
    _symmetry_equiv_pos_as_xyz
    x,y,z
loop_
    _atom_site_label
    _atom_site_type_symbol
    _atom_site_fract_x
    _atom_site_fract_y
    _atom_site_fract_z
    _atom_site_occupancy
    C1       C        0.06680    0.63179    0.85570    1.000
    C2       C        0.18970    0.69393    0.80460    1.000
    C3       C        0.39460    0.70894    0.81790    1.000
    H1       H        0.48810    0.67870    0.86410    1.000
    C4       C        0.44830    0.77540    0.75370    1.000
    H2       H        0.58130    0.79370    0.75240    1.000
    C5       C        0.28220    0.81016    0.69310    1.000
    C6       C        0.27430    0.88098    0.61660    1.000
    S1       S        0.06051    0.76143    0.71450    1.000
    O1       O        0.16010    0.57509    0.91220    1.000
    O2       O        0.87820    0.63937    0.83941    1.000
    O3       O        0.44290    0.91237    0.60146    1.000
    O4       O        0.09990    0.90240    0.57475    1.000
    C7       C        0.43320    0.13179    0.64430    1.000
    C8       C        0.31030    0.19393    0.69540    1.000
    C9       C        0.10540    0.20894    0.68210    1.000
    H3       H        0.01190    0.17870    0.63590    1.000
    C10      C        0.05170    0.27540    0.74630    1.000
    H4       H        0.91870    0.29370    0.74760    1.000
    C11      C        0.21780    0.31016    0.80690    1.000
    C12      C        0.22570    0.38098    0.88340    1.000
    S2       S        0.43949    0.26143    0.78550    1.000
    O5       O        0.33990    0.07509    0.58780    1.000
    O6       O        0.62180    0.13937    0.66059    1.000
    O7       O        0.05710    0.41237    0.89854    1.000
    O8       O        0.40010    0.40240    0.92525    1.000
    C13      C        0.93320    0.36821    0.14430    1.000
    C14      C        0.81030    0.30607    0.19540    1.000
    C15      C        0.60540    0.29106    0.18210    1.000
    H5       H        0.51190    0.32130    0.13590    1.000
    C16      C        0.55170    0.22460    0.24630    1.000
    H6       H        0.41870    0.20630    0.24760    1.000
    C17      C        0.71780    0.18984    0.30690    1.000
    C18      C        0.72570    0.11902    0.38340    1.000
    S3       S        0.93949    0.23857    0.28550    1.000
    O9       O        0.83990    0.42491    0.08780    1.000
    O10      O        0.12180    0.36063    0.16059    1.000
    O11      O        0.55710    0.08763    0.39854    1.000
    O12      O        0.90010    0.09760    0.42525    1.000
    C19      C        0.56680    0.86821    0.35570    1.000
    C20      C        0.68970    0.80607    0.30460    1.000
    C21      C        0.89460    0.79106    0.31790    1.000
    H7       H        0.98810    0.82130    0.36410    1.000
    C22      C        0.94830    0.72460    0.25370    1.000
    H8       H        0.08130    0.70630    0.25240    1.000
    C23      C        0.78220    0.68984    0.19310    1.000
    C24      C        0.77430    0.61902    0.11660    1.000
    S4       S        0.56051    0.73857    0.21450    1.000
    O13      O        0.66010    0.92491    0.41220    1.000
    O14      O        0.37820    0.86063    0.33941    1.000
    O15      O        0.94290    0.58763    0.10146    1.000
    O16      O        0.59990    0.59760    0.07475    1.000
    Cu1      Cu       0.00000    0.50000    0.00000    1.000
    Cu2      Cu       0.50000    0.00000    0.50000    1.000
    Cu3      Cu       0.00000    0.00000    0.50000    1.000
    Cu4      Cu       0.50000    0.50000    0.00000    1.000
