# CIF file generated by openbabel 3.1.0, see https://openbabel.org
data_I
_chemical_name_common 'image0'
_cell_length_a 19.1912
_cell_length_b 9.347
_cell_length_c 9.6375
_cell_angle_alpha 90
_cell_angle_beta 92.709
_cell_angle_gamma 90
_space_group_name_H-M_alt 'P 1'
_space_group_name_Hall 'P 1'
loop_
    _symmetry_equiv_pos_as_xyz
    x,y,z
loop_
    _atom_site_label
    _atom_site_type_symbol
    _atom_site_fract_x
    _atom_site_fract_y
    _atom_site_fract_z
    _atom_site_occupancy
    P1       P        0.83340    0.15080    0.52890    1.000
    P2       P        0.95200    0.84480    0.21650    1.000
    P3       P        0.58080    0.90640    0.40050    1.000
    P4       P        0.60500    0.15680    0.78020    1.000
    Al1      Al       0.94410    0.91950    0.51920    1.000
    Al2      Al       0.91830    0.15720    0.27250    1.000
    Al3      Al       0.67460    0.15540    0.48910    1.000
    Al4      Al       0.46600    0.13920    0.28530    1.000
    O1       O        0.87060    0.01520    0.58000    1.000
    O2       O        0.83910    0.17820    0.37220    1.000
    O3       O        0.75750    0.14530    0.55900    1.000
    O4       O        0.86530    0.27560    0.61540    1.000
    O5       O        0.91490    0.81830    0.35330    1.000
    O6       O        0.91130    0.74520    0.11620    1.000
    O7       O        0.03090    0.82000    0.23570    1.000
    O8       O        0.93470    0.99900    0.16990    1.000
    O9       O        0.51330    0.98570    0.36410    1.000
    O10      O        0.57270    0.83310    0.54050    1.000
    O11      O        0.59000    0.78550    0.29300    1.000
    O12      O        0.65020    0.99040    0.41330    1.000
    O13      O        0.53880    0.22810    0.82710    1.000
    O14      O        0.62090    0.19600    0.62830    1.000
    O15      O        0.60160    0.99190    0.78950    1.000
    O16      O        0.67140    0.19990    0.87010    1.000
    O17      O        0.96920    0.08130    0.42080    1.000
    P5       P        0.16660    0.65080    0.97110    1.000
    P6       P        0.04800    0.34480    0.28350    1.000
    P7       P        0.41920    0.40640    0.09950    1.000
    P8       P        0.39500    0.65680    0.71980    1.000
    Al5      Al       0.05590    0.41950    0.98080    1.000
    Al6      Al       0.08170    0.65720    0.22750    1.000
    Al7      Al       0.32540    0.65540    0.01090    1.000
    Al8      Al       0.53400    0.63920    0.21470    1.000
    O18      O        0.12940    0.51520    0.92000    1.000
    O19      O        0.16090    0.67820    0.12780    1.000
    O20      O        0.24250    0.64530    0.94100    1.000
    O21      O        0.13470    0.77560    0.88460    1.000
    O22      O        0.08510    0.31830    0.14670    1.000
    O23      O        0.08870    0.24520    0.38380    1.000
    O24      O        0.96910    0.32000    0.26430    1.000
    O25      O        0.06530    0.49900    0.33010    1.000
    O26      O        0.48670    0.48570    0.13590    1.000
    O27      O        0.42730    0.33310    0.95950    1.000
    O28      O        0.41000    0.28550    0.20700    1.000
    O29      O        0.34980    0.49040    0.08670    1.000
    O30      O        0.46120    0.72810    0.67290    1.000
    O31      O        0.37910    0.69600    0.87170    1.000
    O32      O        0.39840    0.49190    0.71050    1.000
    O33      O        0.32860    0.69990    0.62990    1.000
    O34      O        0.03080    0.58130    0.07920    1.000
    P9       P        0.16660    0.84920    0.47110    1.000
    P10      P        0.04800    0.15520    0.78350    1.000
    P11      P        0.41920    0.09360    0.59950    1.000
    P12      P        0.39500    0.84320    0.21980    1.000
    Al9      Al       0.05590    0.08050    0.48080    1.000
    Al10     Al       0.08170    0.84280    0.72750    1.000
    Al11     Al       0.32540    0.84460    0.51090    1.000
    Al12     Al       0.53400    0.86080    0.71470    1.000
    O35      O        0.12940    0.98480    0.42000    1.000
    O36      O        0.16090    0.82180    0.62780    1.000
    O37      O        0.24250    0.85470    0.44100    1.000
    O38      O        0.13470    0.72440    0.38460    1.000
    O39      O        0.08510    0.18170    0.64670    1.000
    O40      O        0.08870    0.25480    0.88380    1.000
    O41      O        0.96910    0.18000    0.76430    1.000
    O42      O        0.06530    0.00100    0.83010    1.000
    O43      O        0.48670    0.01430    0.63590    1.000
    O44      O        0.42730    0.16690    0.45950    1.000
    O45      O        0.41000    0.21450    0.70700    1.000
    O46      O        0.34980    0.00960    0.58670    1.000
    O47      O        0.46120    0.77190    0.17290    1.000
    O48      O        0.37910    0.80400    0.37170    1.000
    O49      O        0.39840    0.00810    0.21050    1.000
    O50      O        0.32860    0.80010    0.12990    1.000
    O51      O        0.03080    0.91870    0.57920    1.000
    P13      P        0.83340    0.34920    0.02890    1.000
    P14      P        0.95200    0.65520    0.71650    1.000
    P15      P        0.58080    0.59360    0.90050    1.000
    P16      P        0.60500    0.34320    0.28020    1.000
    Al13     Al       0.94410    0.58050    0.01920    1.000
    Al14     Al       0.91830    0.34280    0.77250    1.000
    Al15     Al       0.67460    0.34460    0.98910    1.000
    Al16     Al       0.46600    0.36080    0.78530    1.000
    O52      O        0.87060    0.48480    0.08000    1.000
    O53      O        0.83910    0.32180    0.87220    1.000
    O54      O        0.75750    0.35470    0.05900    1.000
    O55      O        0.86530    0.22440    0.11540    1.000
    O56      O        0.91490    0.68170    0.85330    1.000
    O57      O        0.91130    0.75480    0.61620    1.000
    O58      O        0.03090    0.68000    0.73570    1.000
    O59      O        0.93470    0.50100    0.66990    1.000
    O60      O        0.51330    0.51430    0.86410    1.000
    O61      O        0.57270    0.66690    0.04050    1.000
    O62      O        0.59000    0.71450    0.79300    1.000
    O63      O        0.65020    0.50960    0.91330    1.000
    O64      O        0.53880    0.27190    0.32710    1.000
    O65      O        0.62090    0.30400    0.12830    1.000
    O66      O        0.60160    0.50810    0.28950    1.000
    O67      O        0.67140    0.30010    0.37010    1.000
    O68      O        0.96920    0.41870    0.92080    1.000
