# CIF file generated by openbabel 3.1.0, see https://openbabel.org
data_I
_chemical_name_common 'image0'
_cell_length_a 18.8184
_cell_length_b 9.4843
_cell_length_c 17.349
_cell_angle_alpha 90
_cell_angle_beta 90
_cell_angle_gamma 90
_space_group_name_H-M_alt 'P 1'
_space_group_name_Hall 'P 1'
loop_
    _symmetry_equiv_pos_as_xyz
    x,y,z
loop_
    _atom_site_label
    _atom_site_type_symbol
    _atom_site_fract_x
    _atom_site_fract_y
    _atom_site_fract_z
    _atom_site_occupancy
    Mg1      Mg       0.25519    0.26214    0.30410    1.000
    C1       C        0.15530    0.32700    0.12939    1.000
    C2       C        0.13021    0.27190    0.06019    1.000
    C3       C        0.15687    0.31370    0.98906    1.000
    C4       C        0.20973    0.41740    0.98693    1.000
    C5       C        0.23442    0.47500    0.05621    1.000
    C6       C        0.20901    0.42900    0.12728    1.000
    C7       C        0.24189    0.49480    0.19884    1.000
    C8       C        0.12174    0.27440    0.20313    1.000
    C9       C        0.12379    0.24840    0.91784    1.000
    C10      C        0.24360    0.47140    0.91327    1.000
    O1       O        0.15421    0.29130    0.26554    1.000
    O2       O        0.06211    0.21660    0.19680    1.000
    O3       O        0.07130    0.17110    0.92833    1.000
    O4       O        0.14909    0.27645    0.85279    1.000
    O5       O        0.28609    0.39157    0.87888    1.000
    O6       O        0.22916    0.59591    0.89463    1.000
    O7       O        0.22080    0.61501    0.21697    1.000
    O8       O        0.28992    0.42518    0.23241    1.000
    H1       H        0.09240    0.20100    0.06220    1.000
    H2       H        0.27090    0.54400    0.05420    1.000
    Mg2      Mg       0.24481    0.23786    0.80410    1.000
    C11      C        0.34470    0.17300    0.62939    1.000
    C12      C        0.36979    0.22810    0.56019    1.000
    C13      C        0.34313    0.18630    0.48906    1.000
    C14      C        0.29027    0.08260    0.48693    1.000
    C15      C        0.26558    0.02500    0.55621    1.000
    C16      C        0.29099    0.07100    0.62728    1.000
    C17      C        0.25811    0.00520    0.69884    1.000
    C18      C        0.37826    0.22560    0.70313    1.000
    C19      C        0.37621    0.25160    0.41784    1.000
    C20      C        0.25640    0.02860    0.41327    1.000
    O9       O        0.34579    0.20870    0.76554    1.000
    O10      O        0.43789    0.28340    0.69680    1.000
    O11      O        0.42870    0.32890    0.42833    1.000
    O12      O        0.35091    0.22355    0.35279    1.000
    O13      O        0.21391    0.10843    0.37888    1.000
    O14      O        0.27084    0.90409    0.39463    1.000
    O15      O        0.27920    0.88499    0.71697    1.000
    O16      O        0.21008    0.07482    0.73241    1.000
    H3       H        0.40760    0.29900    0.56220    1.000
    H4       H        0.22910    0.95600    0.55420    1.000
    Mg3      Mg       0.74481    0.26214    0.19590    1.000
    C21      C        0.84470    0.32700    0.37061    1.000
    C22      C        0.86979    0.27190    0.43981    1.000
    C23      C        0.84313    0.31370    0.51094    1.000
    C24      C        0.79027    0.41740    0.51307    1.000
    C25      C        0.76558    0.47500    0.44379    1.000
    C26      C        0.79099    0.42900    0.37272    1.000
    C27      C        0.75811    0.49480    0.30116    1.000
    C28      C        0.87826    0.27440    0.29687    1.000
    C29      C        0.87621    0.24840    0.58216    1.000
    C30      C        0.75640    0.47140    0.58673    1.000
    O17      O        0.84579    0.29130    0.23446    1.000
    O18      O        0.93789    0.21660    0.30320    1.000
    O19      O        0.92870    0.17110    0.57167    1.000
    O20      O        0.85091    0.27645    0.64721    1.000
    O21      O        0.71391    0.39157    0.62112    1.000
    O22      O        0.77084    0.59591    0.60537    1.000
    O23      O        0.77920    0.61501    0.28303    1.000
    O24      O        0.71008    0.42518    0.26759    1.000
    H5       H        0.90760    0.20100    0.43780    1.000
    H6       H        0.72910    0.54400    0.44580    1.000
    Mg4      Mg       0.75519    0.23786    0.69590    1.000
    C31      C        0.65530    0.17300    0.87061    1.000
    C32      C        0.63021    0.22810    0.93981    1.000
    C33      C        0.65687    0.18630    0.01094    1.000
    C34      C        0.70973    0.08260    0.01307    1.000
    C35      C        0.73442    0.02500    0.94379    1.000
    C36      C        0.70901    0.07100    0.87272    1.000
    C37      C        0.74189    0.00520    0.80116    1.000
    C38      C        0.62174    0.22560    0.79687    1.000
    C39      C        0.62379    0.25160    0.08216    1.000
    C40      C        0.74360    0.02860    0.08673    1.000
    O25      O        0.65421    0.20870    0.73446    1.000
    O26      O        0.56211    0.28340    0.80320    1.000
    O27      O        0.57130    0.32890    0.07167    1.000
    O28      O        0.64909    0.22355    0.14721    1.000
    O29      O        0.78609    0.10843    0.12112    1.000
    O30      O        0.72916    0.90409    0.10537    1.000
    O31      O        0.72080    0.88499    0.78303    1.000
    O32      O        0.78992    0.07482    0.76759    1.000
    H7       H        0.59240    0.29900    0.93780    1.000
    H8       H        0.77090    0.95600    0.94580    1.000
    Mg5      Mg       0.74481    0.73786    0.69590    1.000
    C41      C        0.84470    0.67300    0.87061    1.000
    C42      C        0.86979    0.72810    0.93981    1.000
    C43      C        0.84313    0.68630    0.01094    1.000
    C44      C        0.79027    0.58260    0.01307    1.000
    C45      C        0.76558    0.52500    0.94379    1.000
    C46      C        0.79099    0.57100    0.87272    1.000
    C47      C        0.75811    0.50520    0.80116    1.000
    C48      C        0.87826    0.72560    0.79687    1.000
    C49      C        0.87621    0.75160    0.08216    1.000
    C50      C        0.75640    0.52860    0.08673    1.000
    O33      O        0.84579    0.70870    0.73446    1.000
    O34      O        0.93789    0.78340    0.80320    1.000
    O35      O        0.92870    0.82890    0.07167    1.000
    O36      O        0.85091    0.72355    0.14721    1.000
    O37      O        0.71391    0.60843    0.12112    1.000
    O38      O        0.77084    0.40409    0.10537    1.000
    O39      O        0.77920    0.38499    0.78303    1.000
    O40      O        0.71008    0.57482    0.76759    1.000
    H9       H        0.90760    0.79900    0.93780    1.000
    H10      H        0.72910    0.45600    0.94580    1.000
    Mg6      Mg       0.75519    0.76214    0.19590    1.000
    C51      C        0.65530    0.82700    0.37061    1.000
    C52      C        0.63021    0.77190    0.43981    1.000
    C53      C        0.65687    0.81370    0.51094    1.000
    C54      C        0.70973    0.91740    0.51307    1.000
    C55      C        0.73442    0.97500    0.44379    1.000
    C56      C        0.70901    0.92900    0.37272    1.000
    C57      C        0.74189    0.99480    0.30116    1.000
    C58      C        0.62174    0.77440    0.29687    1.000
    C59      C        0.62379    0.74840    0.58216    1.000
    C60      C        0.74360    0.97140    0.58673    1.000
    O41      O        0.65421    0.79130    0.23446    1.000
    O42      O        0.56211    0.71660    0.30320    1.000
    O43      O        0.57130    0.67110    0.57167    1.000
    O44      O        0.64909    0.77645    0.64721    1.000
    O45      O        0.78609    0.89157    0.62112    1.000
    O46      O        0.72916    0.09591    0.60537    1.000
    O47      O        0.72080    0.11501    0.28303    1.000
    O48      O        0.78992    0.92518    0.26759    1.000
    H11      H        0.59240    0.70100    0.43780    1.000
    H12      H        0.77090    0.04400    0.44580    1.000
    Mg7      Mg       0.25519    0.73786    0.80410    1.000
    C61      C        0.15530    0.67300    0.62939    1.000
    C62      C        0.13021    0.72810    0.56019    1.000
    C63      C        0.15687    0.68630    0.48906    1.000
    C64      C        0.20973    0.58260    0.48693    1.000
    C65      C        0.23442    0.52500    0.55621    1.000
    C66      C        0.20901    0.57100    0.62728    1.000
    C67      C        0.24189    0.50520    0.69884    1.000
    C68      C        0.12174    0.72560    0.70313    1.000
    C69      C        0.12379    0.75160    0.41784    1.000
    C70      C        0.24360    0.52860    0.41327    1.000
    O49      O        0.15421    0.70870    0.76554    1.000
    O50      O        0.06211    0.78340    0.69680    1.000
    O51      O        0.07130    0.82890    0.42833    1.000
    O52      O        0.14909    0.72355    0.35279    1.000
    O53      O        0.28609    0.60843    0.37888    1.000
    O54      O        0.22916    0.40409    0.39463    1.000
    O55      O        0.22080    0.38499    0.71697    1.000
    O56      O        0.28992    0.57482    0.73241    1.000
    H13      H        0.09240    0.79900    0.56220    1.000
    H14      H        0.27090    0.45600    0.55420    1.000
    Mg8      Mg       0.24481    0.76214    0.30410    1.000
    C71      C        0.34470    0.82700    0.12939    1.000
    C72      C        0.36979    0.77190    0.06019    1.000
    C73      C        0.34313    0.81370    0.98906    1.000
    C74      C        0.29027    0.91740    0.98693    1.000
    C75      C        0.26558    0.97500    0.05621    1.000
    C76      C        0.29099    0.92900    0.12728    1.000
    C77      C        0.25811    0.99480    0.19884    1.000
    C78      C        0.37826    0.77440    0.20313    1.000
    C79      C        0.37621    0.74840    0.91784    1.000
    C80      C        0.25640    0.97140    0.91327    1.000
    O57      O        0.34579    0.79130    0.26554    1.000
    O58      O        0.43789    0.71660    0.19680    1.000
    O59      O        0.42870    0.67110    0.92833    1.000
    O60      O        0.35091    0.77645    0.85279    1.000
    O61      O        0.21391    0.89157    0.87888    1.000
    O62      O        0.27084    0.09591    0.89463    1.000
    O63      O        0.27920    0.11501    0.21697    1.000
    O64      O        0.21008    0.92518    0.23241    1.000
    H15      H        0.40760    0.70100    0.06220    1.000
    H16      H        0.22910    0.04400    0.05420    1.000
    Mg9      Mg       0.00000    0.07076    0.25000    1.000
    Mg10     Mg       0.50000    0.42924    0.75000    1.000
    Mg11     Mg       0.00000    0.92924    0.75000    1.000
    Mg12     Mg       0.50000    0.57076    0.25000    1.000
