# CIF file generated by openbabel 3.1.0, see https://openbabel.org
data_I
_chemical_name_common 'image0'
_cell_length_a 27.779
_cell_length_b 27.779
_cell_length_c 17.807
_cell_angle_alpha 90
_cell_angle_beta 90
_cell_angle_gamma 120
_space_group_name_H-M_alt 'P 1'
_space_group_name_Hall 'P 1'
loop_
    _symmetry_equiv_pos_as_xyz
    x,y,z
loop_
    _atom_site_label
    _atom_site_type_symbol
    _atom_site_fract_x
    _atom_site_fract_y
    _atom_site_fract_z
    _atom_site_occupancy
    C1       C        0.27740    0.06650    0.05620    1.000
    C2       C        0.26470    0.09300    0.12010    1.000
    C3       C        0.26890    0.14460    0.11030    1.000
    H1       H        0.27710    0.16180    0.06230    1.000
    C4       C        0.26102    0.17068    0.17130    1.000
    C5       C        0.27030    0.22800    0.16200    1.000
    C6       C        0.24781    0.14565    0.24220    1.000
    H2       H        0.24360    0.16430    0.28420    1.000
    C7       C        0.24100    0.09280    0.24940    1.000
    C8       C        0.25040    0.06680    0.18950    1.000
    H3       H        0.24710    0.03130    0.19580    1.000
    C9       C        0.20670    0.08290    0.37720    1.000
    H4       H        0.17750    0.09080    0.35970    1.000
    H5       H        0.23780    0.11740    0.39830    1.000
    C10      C        0.18370    0.03800    0.43530    1.000
    H6       H        0.21390    0.03230    0.45460    1.000
    H7       H        0.15530    0.00280    0.41190    1.000
    C11      C        0.15770    0.05220    0.50000    1.000
    H8       H        0.18350    0.09000    0.51750    1.000
    H9       H        0.14980    0.02580    0.54120    1.000
    H10      H        0.12310    0.04990    0.48330    1.000
    C12      C        0.29960    0.93450    0.24490    1.000
    C13      C        0.25970    0.87760    0.26950    1.000
    C14      C        0.20950    0.84600    0.23210    1.000
    H11      H        0.20100    0.86060    0.18910    1.000
    C15      C        0.17190    0.79290    0.25820    1.000
    C16      C        0.11680    0.75910    0.22060    1.000
    C17      C        0.18430    0.77130    0.32090    1.000
    H12      H        0.15810    0.73540    0.33910    1.000
    C18      C        0.23450    0.80190    0.35660    1.000
    C19      C        0.27200    0.85520    0.33150    1.000
    H13      H        0.30640    0.87650    0.35700    1.000
    C20      C        0.21100    0.73960    0.46190    1.000
    Co1      Co       0.41122    0.02587    0.25041    1.000
    Co2      Co       0.32909    0.99485    0.08717    1.000
    O1       O        0.27394    0.02003    0.06580    1.000
    O2       O        0.29025    0.09176    0.99447    1.000
    O3       O        0.28115    0.25807    0.21862    1.000
    O4       O        0.26564    0.24293    0.09592    1.000
    O5       O        0.22588    0.06306    0.31570    1.000
    O6       O        0.29137    0.95246    0.18450    1.000
    O7       O        0.34175    0.96315    0.28710    1.000
    O8       O        0.08247    0.71471    0.25210    1.000
    O9       O        0.10870    0.77753    0.16010    1.000
    O10      O        0.25095    0.78392    0.41810    1.000
    C21      C        0.24080    0.72580    0.52270    1.000
    C22      C        0.20590    0.70900    0.59890    1.000
    C23      C        0.24380    0.75430    0.54510    1.000
    C24      C        0.94407    0.39983    0.38953    1.000
    C25      C        0.93137    0.42633    0.45343    1.000
    C26      C        0.93557    0.47793    0.44363    1.000
    H14      H        0.94377    0.49513    0.39563    1.000
    C27      C        0.92769    0.50401    0.50463    1.000
    C28      C        0.93697    0.56133    0.49533    1.000
    C29      C        0.91448    0.47898    0.57553    1.000
    H15      H        0.91027    0.49763    0.61753    1.000
    C30      C        0.90767    0.42613    0.58273    1.000
    C31      C        0.91707    0.40013    0.52283    1.000
    H16      H        0.91377    0.36463    0.52913    1.000
    C32      C        0.87337    0.41623    0.71053    1.000
    H17      H        0.84417    0.42413    0.69303    1.000
    H18      H        0.90447    0.45073    0.73163    1.000
    C33      C        0.85037    0.37133    0.76863    1.000
    H19      H        0.88057    0.36563    0.78793    1.000
    H20      H        0.82197    0.33613    0.74523    1.000
    C34      C        0.82437    0.38553    0.83333    1.000
    H21      H        0.85017    0.42333    0.85083    1.000
    H22      H        0.81647    0.35913    0.87453    1.000
    H23      H        0.78977    0.38323    0.81663    1.000
    C35      C        0.96627    0.26783    0.57823    1.000
    C36      C        0.92637    0.21093    0.60283    1.000
    C37      C        0.87617    0.17933    0.56543    1.000
    H24      H        0.86767    0.19393    0.52243    1.000
    C38      C        0.83857    0.12623    0.59153    1.000
    C39      C        0.78347    0.09243    0.55393    1.000
    C40      C        0.85097    0.10463    0.65423    1.000
    H25      H        0.82477    0.06873    0.67243    1.000
    C41      C        0.90117    0.13523    0.68993    1.000
    C42      C        0.93867    0.18853    0.66483    1.000
    H26      H        0.97307    0.20983    0.69033    1.000
    C43      C        0.87767    0.07293    0.79523    1.000
    Co3      Co       0.07789    0.35920    0.58374    1.000
    Co4      Co       0.99576    0.32818    0.42050    1.000
    O11      O        0.94061    0.35336    0.39913    1.000
    O12      O        0.95692    0.42509    0.32780    1.000
    O13      O        0.94782    0.59140    0.55195    1.000
    O14      O        0.93231    0.57626    0.42925    1.000
    O15      O        0.89255    0.39639    0.64903    1.000
    O16      O        0.95804    0.28579    0.51783    1.000
    O17      O        0.00842    0.29648    0.62043    1.000
    O18      O        0.74914    0.04804    0.58543    1.000
    O19      O        0.77537    0.11086    0.49343    1.000
    O20      O        0.91762    0.11725    0.75143    1.000
    C44      C        0.90747    0.05913    0.85603    1.000
    C45      C        0.87257    0.04233    0.93223    1.000
    C46      C        0.91047    0.08763    0.87843    1.000
    C47      C        0.61073    0.73317    0.72287    1.000
    C48      C        0.59803    0.75967    0.78677    1.000
    C49      C        0.60223    0.81127    0.77697    1.000
    H27      H        0.61043    0.82847    0.72897    1.000
    C50      C        0.59435    0.83735    0.83797    1.000
    C51      C        0.60363    0.89467    0.82867    1.000
    C52      C        0.58114    0.81232    0.90887    1.000
    H28      H        0.57693    0.83097    0.95087    1.000
    C53      C        0.57433    0.75947    0.91607    1.000
    C54      C        0.58373    0.73347    0.85617    1.000
    H29      H        0.58043    0.69797    0.86247    1.000
    C55      C        0.54003    0.74957    0.04387    1.000
    H30      H        0.51083    0.75747    0.02637    1.000
    H31      H        0.57113    0.78407    0.06497    1.000
    C56      C        0.51703    0.70467    0.10197    1.000
    H32      H        0.54723    0.69897    0.12127    1.000
    H33      H        0.48863    0.66947    0.07857    1.000
    C57      C        0.49103    0.71887    0.16667    1.000
    H34      H        0.51683    0.75667    0.18417    1.000
    H35      H        0.48313    0.69247    0.20787    1.000
    H36      H        0.45643    0.71657    0.14997    1.000
    C58      C        0.63293    0.60117    0.91157    1.000
    C59      C        0.59303    0.54427    0.93617    1.000
    C60      C        0.54283    0.51267    0.89877    1.000
    H37      H        0.53433    0.52727    0.85577    1.000
    C61      C        0.50523    0.45957    0.92487    1.000
    C62      C        0.45013    0.42577    0.88727    1.000
    C63      C        0.51763    0.43797    0.98757    1.000
    H38      H        0.49143    0.40207    0.00577    1.000
    C64      C        0.56783    0.46857    0.02327    1.000
    C65      C        0.60533    0.52187    0.99817    1.000
    H39      H        0.63973    0.54317    0.02367    1.000
    C66      C        0.54433    0.40627    0.12857    1.000
    Co5      Co       0.74455    0.69254    0.91708    1.000
    Co6      Co       0.66242    0.66152    0.75384    1.000
    O21      O        0.60727    0.68670    0.73247    1.000
    O22      O        0.62358    0.75843    0.66114    1.000
    O23      O        0.61448    0.92474    0.88529    1.000
    O24      O        0.59897    0.90960    0.76259    1.000
    O25      O        0.55921    0.72973    0.98237    1.000
    O26      O        0.62470    0.61913    0.85117    1.000
    O27      O        0.67508    0.62982    0.95377    1.000
    O28      O        0.41580    0.38138    0.91877    1.000
    O29      O        0.44203    0.44420    0.82677    1.000
    O30      O        0.58428    0.45059    0.08477    1.000
    C67      C        0.57413    0.39247    0.18937    1.000
    C68      C        0.53923    0.37567    0.26557    1.000
    C69      C        0.57713    0.42097    0.21177    1.000
    C70      C        0.93350    0.21090    0.05620    1.000
    C71      C        0.90700    0.17170    0.12010    1.000
    C72      C        0.85540    0.12430    0.11030    1.000
    H40      H        0.83820    0.11530    0.06230    1.000
    C73      C        0.82932    0.09034    0.17130    1.000
    C74      C        0.77200    0.04230    0.16200    1.000
    C75      C        0.85435    0.10216    0.24220    1.000
    H41      H        0.83570    0.07930    0.28420    1.000
    C76      C        0.90720    0.14820    0.24940    1.000
    C77      C        0.93320    0.18360    0.18950    1.000
    H42      H        0.96870    0.21580    0.19580    1.000
    C78      C        0.91710    0.12380    0.37720    1.000
    H43      H        0.90920    0.08670    0.35970    1.000
    H44      H        0.88260    0.12040    0.39830    1.000
    C79      C        0.96200    0.14570    0.43530    1.000
    H45      H        0.96770    0.18160    0.45460    1.000
    H46      H        0.99720    0.15250    0.41190    1.000
    C80      C        0.94780    0.10550    0.50000    1.000
    H47      H        0.91000    0.09350    0.51750    1.000
    H48      H        0.97420    0.12400    0.54120    1.000
    H49      H        0.95010    0.07320    0.48330    1.000
    C81      C        0.06550    0.36510    0.24490    1.000
    C82      C        0.12240    0.38210    0.26950    1.000
    C83      C        0.15400    0.36350    0.23210    1.000
    H50      H        0.13940    0.34040    0.18910    1.000
    C84      C        0.20710    0.37900    0.25820    1.000
    C85      C        0.24090    0.35770    0.22060    1.000
    C86      C        0.22870    0.41300    0.32090    1.000
    H51      H        0.26460    0.42270    0.33910    1.000
    C87      C        0.19810    0.43260    0.35660    1.000
    C88      C        0.14480    0.41680    0.33150    1.000
    H52      H        0.12350    0.42990    0.35700    1.000
    C89      C        0.26040    0.47140    0.46190    1.000
    Co7      Co       0.97413    0.38535    0.25041    1.000
    Co8      Co       0.00515    0.33424    0.08717    1.000
    O31      O        0.97997    0.25391    0.06580    1.000
    O32      O        0.90824    0.19849    0.99447    1.000
    O33      O        0.74193    0.02308    0.21862    1.000
    O34      O        0.75707    0.02271    0.09592    1.000
    O35      O        0.93694    0.16282    0.31570    1.000
    O36      O        0.04754    0.33891    0.18450    1.000
    O37      O        0.03685    0.37860    0.28710    1.000
    O38      O        0.28529    0.36776    0.25210    1.000
    O39      O        0.22247    0.33117    0.16010    1.000
    O40      O        0.21608    0.46703    0.41810    1.000
    C90      C        0.27420    0.51500    0.52270    1.000
    C91      C        0.29100    0.49690    0.59890    1.000
    C92      C        0.24570    0.48950    0.54510    1.000
    C93      C        0.60017    0.54423    0.38953    1.000
    C94      C        0.57367    0.50503    0.45343    1.000
    C95      C        0.52207    0.45763    0.44363    1.000
    H53      H        0.50487    0.44863    0.39563    1.000
    C96      C        0.49599    0.42367    0.50463    1.000
    C97      C        0.43867    0.37563    0.49533    1.000
    C98      C        0.52102    0.43549    0.57553    1.000
    H54      H        0.50237    0.41263    0.61753    1.000
    C99      C        0.57387    0.48153    0.58273    1.000
    C100     C        0.59987    0.51693    0.52283    1.000
    H55      H        0.63537    0.54913    0.52913    1.000
    C101     C        0.58377    0.45713    0.71053    1.000
    H56      H        0.57587    0.42003    0.69303    1.000
    H57      H        0.54927    0.45373    0.73163    1.000
    C102     C        0.62867    0.47903    0.76863    1.000
    H58      H        0.63437    0.51493    0.78793    1.000
    H59      H        0.66387    0.48583    0.74523    1.000
    C103     C        0.61447    0.43883    0.83333    1.000
    H60      H        0.57667    0.42683    0.85083    1.000
    H61      H        0.64087    0.45733    0.87453    1.000
    H62      H        0.61677    0.40653    0.81663    1.000
    C104     C        0.73217    0.69843    0.57823    1.000
    C105     C        0.78907    0.71543    0.60283    1.000
    C106     C        0.82067    0.69683    0.56543    1.000
    H63      H        0.80607    0.67373    0.52243    1.000
    C107     C        0.87377    0.71233    0.59153    1.000
    C108     C        0.90757    0.69103    0.55393    1.000
    C109     C        0.89537    0.74633    0.65423    1.000
    H64      H        0.93127    0.75603    0.67243    1.000
    C110     C        0.86477    0.76593    0.68993    1.000
    C111     C        0.81147    0.75013    0.66483    1.000
    H65      H        0.79017    0.76323    0.69033    1.000
    C112     C        0.92707    0.80473    0.79523    1.000
    Co9      Co       0.64080    0.71868    0.58374    1.000
    Co10     Co       0.67182    0.66757    0.42050    1.000
    O41      O        0.64664    0.58724    0.39913    1.000
    O42      O        0.57491    0.53182    0.32780    1.000
    O43      O        0.40860    0.35641    0.55195    1.000
    O44      O        0.42374    0.35604    0.42925    1.000
    O45      O        0.60361    0.49615    0.64903    1.000
    O46      O        0.71421    0.67224    0.51783    1.000
    O47      O        0.70352    0.71193    0.62043    1.000
    O48      O        0.95196    0.70109    0.58543    1.000
    O49      O        0.88914    0.66450    0.49343    1.000
    O50      O        0.88275    0.80036    0.75143    1.000
    C113     C        0.94087    0.84833    0.85603    1.000
    C114     C        0.95767    0.83023    0.93223    1.000
    C115     C        0.91237    0.82283    0.87843    1.000
    C116     C        0.26683    0.87757    0.72287    1.000
    C117     C        0.24033    0.83837    0.78677    1.000
    C118     C        0.18873    0.79097    0.77697    1.000
    H66      H        0.17153    0.78197    0.72897    1.000
    C119     C        0.16265    0.75701    0.83797    1.000
    C120     C        0.10533    0.70897    0.82867    1.000
    C121     C        0.18768    0.76883    0.90887    1.000
    H67      H        0.16903    0.74597    0.95087    1.000
    C122     C        0.24053    0.81487    0.91607    1.000
    C123     C        0.26653    0.85027    0.85617    1.000
    H68      H        0.30203    0.88247    0.86247    1.000
    C124     C        0.25043    0.79047    0.04387    1.000
    H69      H        0.24253    0.75337    0.02637    1.000
    H70      H        0.21593    0.78707    0.06497    1.000
    C125     C        0.29533    0.81237    0.10197    1.000
    H71      H        0.30103    0.84827    0.12127    1.000
    H72      H        0.33053    0.81917    0.07857    1.000
    C126     C        0.28113    0.77217    0.16667    1.000
    H73      H        0.24333    0.76017    0.18417    1.000
    H74      H        0.30753    0.79067    0.20787    1.000
    H75      H        0.28343    0.73987    0.14997    1.000
    C127     C        0.39883    0.03177    0.91157    1.000
    C128     C        0.45573    0.04877    0.93617    1.000
    C129     C        0.48733    0.03017    0.89877    1.000
    H76      H        0.47273    0.00707    0.85577    1.000
    C130     C        0.54043    0.04567    0.92487    1.000
    C131     C        0.57423    0.02437    0.88727    1.000
    C132     C        0.56203    0.07967    0.98757    1.000
    H77      H        0.59793    0.08937    0.00577    1.000
    C133     C        0.53143    0.09927    0.02327    1.000
    C134     C        0.47813    0.08347    0.99817    1.000
    H78      H        0.45683    0.09657    0.02367    1.000
    C135     C        0.59373    0.13807    0.12857    1.000
    Co11     Co       0.30746    0.05202    0.91708    1.000
    Co12     Co       0.33848    0.00091    0.75384    1.000
    O51      O        0.31330    0.92058    0.73247    1.000
    O52      O        0.24157    0.86516    0.66114    1.000
    O53      O        0.07526    0.68975    0.88529    1.000
    O54      O        0.09040    0.68938    0.76259    1.000
    O55      O        0.27027    0.82949    0.98237    1.000
    O56      O        0.38087    0.00558    0.85117    1.000
    O57      O        0.37018    0.04527    0.95377    1.000
    O58      O        0.61862    0.03443    0.91877    1.000
    O59      O        0.55580    0.99784    0.82677    1.000
    O60      O        0.54941    0.13370    0.08477    1.000
    C136     C        0.60753    0.18167    0.18937    1.000
    C137     C        0.62433    0.16357    0.26557    1.000
    C138     C        0.57903    0.15617    0.21177    1.000
    C139     C        0.78910    0.72260    0.05620    1.000
    C140     C        0.82830    0.73530    0.12010    1.000
    C141     C        0.87570    0.73110    0.11030    1.000
    H79      H        0.88470    0.72290    0.06230    1.000
    C142     C        0.90966    0.73898    0.17130    1.000
    C143     C        0.95770    0.72970    0.16200    1.000
    C144     C        0.89784    0.75219    0.24220    1.000
    H80      H        0.92070    0.75640    0.28420    1.000
    C145     C        0.85180    0.75900    0.24940    1.000
    C146     C        0.81640    0.74960    0.18950    1.000
    H81      H        0.78420    0.75290    0.19580    1.000
    C147     C        0.87620    0.79330    0.37720    1.000
    H82      H        0.91330    0.82250    0.35970    1.000
    H83      H        0.87960    0.76220    0.39830    1.000
    C148     C        0.85430    0.81630    0.43530    1.000
    H84      H        0.81840    0.78610    0.45460    1.000
    H85      H        0.84750    0.84470    0.41190    1.000
    C149     C        0.89450    0.84230    0.50000    1.000
    H86      H        0.90650    0.81650    0.51750    1.000
    H87      H        0.87600    0.85020    0.54120    1.000
    H88      H        0.92680    0.87690    0.48330    1.000
    C150     C        0.63490    0.70040    0.24490    1.000
    C151     C        0.61790    0.74030    0.26950    1.000
    C152     C        0.63650    0.79050    0.23210    1.000
    H89      H        0.65960    0.79900    0.18910    1.000
    C153     C        0.62100    0.82810    0.25820    1.000
    C154     C        0.64230    0.88320    0.22060    1.000
    C155     C        0.58700    0.81570    0.32090    1.000
    H90      H        0.57730    0.84190    0.33910    1.000
    C156     C        0.56740    0.76550    0.35660    1.000
    C157     C        0.58320    0.72800    0.33150    1.000
    H91      H        0.57010    0.69360    0.35700    1.000
    C158     C        0.52860    0.78900    0.46190    1.000
    Co13     Co       0.61465    0.58878    0.25041    1.000
    Co14     Co       0.66576    0.67091    0.08717    1.000
    O61      O        0.74609    0.72606    0.06580    1.000
    O62      O        0.80151    0.70975    0.99447    1.000
    O63      O        0.97692    0.71885    0.21862    1.000
    O64      O        0.97729    0.73436    0.09592    1.000
    O65      O        0.83718    0.77412    0.31570    1.000
    O66      O        0.66109    0.70863    0.18450    1.000
    O67      O        0.62140    0.65825    0.28710    1.000
    O68      O        0.63224    0.91753    0.25210    1.000
    O69      O        0.66883    0.89130    0.16010    1.000
    O70      O        0.53297    0.74905    0.41810    1.000
    C159     C        0.48500    0.75920    0.52270    1.000
    C160     C        0.50310    0.79410    0.59890    1.000
    C161     C        0.51050    0.75620    0.54510    1.000
    C162     C        0.45577    0.05593    0.38953    1.000
    C163     C        0.49497    0.06863    0.45343    1.000
    C164     C        0.54237    0.06443    0.44363    1.000
    H92      H        0.55137    0.05623    0.39563    1.000
    C165     C        0.57633    0.07231    0.50463    1.000
    C166     C        0.62437    0.06303    0.49533    1.000
    C167     C        0.56451    0.08552    0.57553    1.000
    H93      H        0.58737    0.08973    0.61753    1.000
    C168     C        0.51847    0.09233    0.58273    1.000
    C169     C        0.48307    0.08293    0.52283    1.000
    H94      H        0.45087    0.08623    0.52913    1.000
    C170     C        0.54287    0.12663    0.71053    1.000
    H95      H        0.57997    0.15583    0.69303    1.000
    H96      H        0.54627    0.09553    0.73163    1.000
    C171     C        0.52097    0.14963    0.76863    1.000
    H97      H        0.48507    0.11943    0.78793    1.000
    H98      H        0.51417    0.17803    0.74523    1.000
    C172     C        0.56117    0.17563    0.83333    1.000
    H99      H        0.57317    0.14983    0.85083    1.000
    H100     H        0.54267    0.18353    0.87453    1.000
    H101     H        0.59347    0.21023    0.81663    1.000
    C173     C        0.30157    0.03373    0.57823    1.000
    C174     C        0.28457    0.07363    0.60283    1.000
    C175     C        0.30317    0.12383    0.56543    1.000
    H102     H        0.32627    0.13233    0.52243    1.000
    C176     C        0.28767    0.16143    0.59153    1.000
    C177     C        0.30897    0.21653    0.55393    1.000
    C178     C        0.25367    0.14903    0.65423    1.000
    H103     H        0.24397    0.17523    0.67243    1.000
    C179     C        0.23407    0.09883    0.68993    1.000
    C180     C        0.24987    0.06133    0.66483    1.000
    H104     H        0.23677    0.02693    0.69033    1.000
    C181     C        0.19527    0.12233    0.79523    1.000
    Co15     Co       0.28132    0.92211    0.58374    1.000
    Co16     Co       0.33243    0.00424    0.42050    1.000
    O71      O        0.41276    0.05939    0.39913    1.000
    O72      O        0.46818    0.04308    0.32780    1.000
    O73      O        0.64359    0.05218    0.55195    1.000
    O74      O        0.64396    0.06769    0.42925    1.000
    O75      O        0.50385    0.10745    0.64903    1.000
    O76      O        0.32776    0.04196    0.51783    1.000
    O77      O        0.28807    0.99158    0.62043    1.000
    O78      O        0.29891    0.25086    0.58543    1.000
    O79      O        0.33550    0.22463    0.49343    1.000
    O80      O        0.19964    0.08238    0.75143    1.000
    C182     C        0.15167    0.09253    0.85603    1.000
    C183     C        0.16977    0.12743    0.93223    1.000
    C184     C        0.17717    0.08953    0.87843    1.000
    C185     C        0.12243    0.38927    0.72287    1.000
    C186     C        0.16163    0.40197    0.78677    1.000
    C187     C        0.20903    0.39777    0.77697    1.000
    H105     H        0.21803    0.38957    0.72897    1.000
    C188     C        0.24299    0.40565    0.83797    1.000
    C189     C        0.29103    0.39637    0.82867    1.000
    C190     C        0.23117    0.41886    0.90887    1.000
    H106     H        0.25403    0.42307    0.95087    1.000
    C191     C        0.18513    0.42567    0.91607    1.000
    C192     C        0.14973    0.41627    0.85617    1.000
    H107     H        0.11753    0.41957    0.86247    1.000
    C193     C        0.20953    0.45997    0.04387    1.000
    H108     H        0.24663    0.48917    0.02637    1.000
    H109     H        0.21293    0.42887    0.06497    1.000
    C194     C        0.18763    0.48297    0.10197    1.000
    H110     H        0.15173    0.45277    0.12127    1.000
    H111     H        0.18083    0.51137    0.07857    1.000
    C195     C        0.22783    0.50897    0.16667    1.000
    H112     H        0.23983    0.48317    0.18417    1.000
    H113     H        0.20933    0.51687    0.20787    1.000
    H114     H        0.26013    0.54357    0.14997    1.000
    C196     C        0.96823    0.36707    0.91157    1.000
    C197     C        0.95123    0.40697    0.93617    1.000
    C198     C        0.96983    0.45717    0.89877    1.000
    H115     H        0.99293    0.46567    0.85577    1.000
    C199     C        0.95433    0.49477    0.92487    1.000
    C200     C        0.97563    0.54987    0.88727    1.000
    C201     C        0.92033    0.48237    0.98757    1.000
    H116     H        0.91063    0.50857    0.00577    1.000
    C202     C        0.90073    0.43217    0.02327    1.000
    C203     C        0.91653    0.39467    0.99817    1.000
    H117     H        0.90343    0.36027    0.02367    1.000
    C204     C        0.86193    0.45567    0.12857    1.000
    Co17     Co       0.94798    0.25545    0.91708    1.000
    Co18     Co       0.99909    0.33758    0.75384    1.000
    O81      O        0.07942    0.39273    0.73247    1.000
    O82      O        0.13484    0.37642    0.66114    1.000
    O83      O        0.31025    0.38552    0.88529    1.000
    O84      O        0.31062    0.40103    0.76259    1.000
    O85      O        0.17051    0.44079    0.98237    1.000
    O86      O        0.99442    0.37530    0.85117    1.000
    O87      O        0.95473    0.32492    0.95377    1.000
    O88      O        0.96557    0.58420    0.91877    1.000
    O89      O        0.00216    0.55797    0.82677    1.000
    O90      O        0.86630    0.41572    0.08477    1.000
    C205     C        0.81833    0.42587    0.18937    1.000
    C206     C        0.83643    0.46077    0.26557    1.000
    C207     C        0.84383    0.42287    0.21177    1.000
    C208     C        0.72260    0.93350    0.94380    1.000
    C209     C        0.73530    0.90700    0.87990    1.000
    C210     C        0.73110    0.85540    0.88970    1.000
    H118     H        0.72290    0.83820    0.93770    1.000
    C211     C        0.73898    0.82932    0.82870    1.000
    C212     C        0.72970    0.77200    0.83800    1.000
    C213     C        0.75219    0.85435    0.75780    1.000
    H119     H        0.75640    0.83570    0.71580    1.000
    C214     C        0.75900    0.90720    0.75060    1.000
    C215     C        0.74960    0.93320    0.81050    1.000
    H120     H        0.75290    0.96870    0.80420    1.000
    C216     C        0.79330    0.91710    0.62280    1.000
    H121     H        0.82250    0.90920    0.64030    1.000
    H122     H        0.76220    0.88260    0.60170    1.000
    C217     C        0.81630    0.96200    0.56470    1.000
    H123     H        0.78610    0.96770    0.54540    1.000
    H124     H        0.84470    0.99720    0.58810    1.000
    C218     C        0.84230    0.94780    0.50000    1.000
    H125     H        0.81650    0.91000    0.48250    1.000
    H126     H        0.85020    0.97420    0.45880    1.000
    H127     H        0.87690    0.95010    0.51670    1.000
    C219     C        0.70040    0.06550    0.75510    1.000
    C220     C        0.74030    0.12240    0.73050    1.000
    C221     C        0.79050    0.15400    0.76790    1.000
    H128     H        0.79900    0.13940    0.81090    1.000
    C222     C        0.82810    0.20710    0.74180    1.000
    C223     C        0.88320    0.24090    0.77940    1.000
    C224     C        0.81570    0.22870    0.67910    1.000
    H129     H        0.84190    0.26460    0.66090    1.000
    C225     C        0.76550    0.19810    0.64340    1.000
    C226     C        0.72800    0.14480    0.66850    1.000
    H130     H        0.69360    0.12350    0.64300    1.000
    C227     C        0.78900    0.26040    0.53810    1.000
    Co19     Co       0.58878    0.97413    0.74959    1.000
    Co20     Co       0.67091    0.00515    0.91283    1.000
    O91      O        0.72606    0.97997    0.93420    1.000
    O92      O        0.70975    0.90824    0.00553    1.000
    O93      O        0.71885    0.74193    0.78138    1.000
    O94      O        0.73436    0.75707    0.90408    1.000
    O95      O        0.77412    0.93694    0.68430    1.000
    O96      O        0.70863    0.04754    0.81550    1.000
    O97      O        0.65825    0.03685    0.71290    1.000
    O98      O        0.91753    0.28529    0.74790    1.000
    O99      O        0.89130    0.22247    0.83990    1.000
    O100     O        0.74905    0.21608    0.58190    1.000
    C228     C        0.75920    0.27420    0.47730    1.000
    C229     C        0.79410    0.29100    0.40110    1.000
    C230     C        0.75620    0.24570    0.45490    1.000
    C231     C        0.38927    0.26683    0.27713    1.000
    C232     C        0.40197    0.24033    0.21323    1.000
    C233     C        0.39777    0.18873    0.22303    1.000
    H131     H        0.38957    0.17153    0.27103    1.000
    C234     C        0.40565    0.16265    0.16203    1.000
    C235     C        0.39637    0.10533    0.17133    1.000
    C236     C        0.41886    0.18768    0.09113    1.000
    H132     H        0.42307    0.16903    0.04913    1.000
    C237     C        0.42567    0.24053    0.08393    1.000
    C238     C        0.41627    0.26653    0.14383    1.000
    H133     H        0.41957    0.30203    0.13753    1.000
    C239     C        0.45997    0.25043    0.95613    1.000
    H134     H        0.48917    0.24253    0.97363    1.000
    H135     H        0.42887    0.21593    0.93503    1.000
    C240     C        0.48297    0.29533    0.89803    1.000
    H136     H        0.45277    0.30103    0.87873    1.000
    H137     H        0.51137    0.33053    0.92143    1.000
    C241     C        0.50897    0.28113    0.83333    1.000
    H138     H        0.48317    0.24333    0.81583    1.000
    H139     H        0.51687    0.30753    0.79213    1.000
    H140     H        0.54357    0.28343    0.85003    1.000
    C242     C        0.36707    0.39883    0.08843    1.000
    C243     C        0.40697    0.45573    0.06383    1.000
    C244     C        0.45717    0.48733    0.10123    1.000
    H141     H        0.46567    0.47273    0.14423    1.000
    C245     C        0.49477    0.54043    0.07513    1.000
    C246     C        0.54987    0.57423    0.11273    1.000
    C247     C        0.48237    0.56203    0.01243    1.000
    H142     H        0.50857    0.59793    0.99423    1.000
    C248     C        0.43217    0.53143    0.97673    1.000
    C249     C        0.39467    0.47813    0.00183    1.000
    H143     H        0.36027    0.45683    0.97633    1.000
    C250     C        0.45567    0.59373    0.87143    1.000
    Co21     Co       0.25545    0.30746    0.08292    1.000
    Co22     Co       0.33758    0.33848    0.24616    1.000
    O101     O        0.39273    0.31330    0.26753    1.000
    O102     O        0.37642    0.24157    0.33886    1.000
    O103     O        0.38552    0.07526    0.11471    1.000
    O104     O        0.40103    0.09040    0.23741    1.000
    O105     O        0.44079    0.27027    0.01763    1.000
    O106     O        0.37530    0.38087    0.14883    1.000
    O107     O        0.32492    0.37018    0.04623    1.000
    O108     O        0.58420    0.61862    0.08123    1.000
    O109     O        0.55797    0.55580    0.17323    1.000
    O110     O        0.41572    0.54941    0.91523    1.000
    C251     C        0.42587    0.60753    0.81063    1.000
    C252     C        0.46077    0.62433    0.73443    1.000
    C253     C        0.42287    0.57903    0.78823    1.000
    C254     C        0.05593    0.60017    0.61047    1.000
    C255     C        0.06863    0.57367    0.54657    1.000
    C256     C        0.06443    0.52207    0.55637    1.000
    H144     H        0.05623    0.50487    0.60437    1.000
    C257     C        0.07231    0.49599    0.49537    1.000
    C258     C        0.06303    0.43867    0.50467    1.000
    C259     C        0.08552    0.52102    0.42447    1.000
    H145     H        0.08973    0.50237    0.38247    1.000
    C260     C        0.09233    0.57387    0.41727    1.000
    C261     C        0.08293    0.59987    0.47717    1.000
    H146     H        0.08623    0.63537    0.47087    1.000
    C262     C        0.12663    0.58377    0.28947    1.000
    H147     H        0.15583    0.57587    0.30697    1.000
    H148     H        0.09553    0.54927    0.26837    1.000
    C263     C        0.14963    0.62867    0.23137    1.000
    H149     H        0.11943    0.63437    0.21207    1.000
    H150     H        0.17803    0.66387    0.25477    1.000
    C264     C        0.17563    0.61447    0.16667    1.000
    H151     H        0.14983    0.57667    0.14917    1.000
    H152     H        0.18353    0.64087    0.12547    1.000
    H153     H        0.21023    0.61677    0.18337    1.000
    C265     C        0.03373    0.73217    0.42177    1.000
    C266     C        0.07363    0.78907    0.39717    1.000
    C267     C        0.12383    0.82067    0.43457    1.000
    H154     H        0.13233    0.80607    0.47757    1.000
    C268     C        0.16143    0.87377    0.40847    1.000
    C269     C        0.21653    0.90757    0.44607    1.000
    C270     C        0.14903    0.89537    0.34577    1.000
    H155     H        0.17523    0.93127    0.32757    1.000
    C271     C        0.09883    0.86477    0.31007    1.000
    C272     C        0.06133    0.81147    0.33517    1.000
    H156     H        0.02693    0.79017    0.30967    1.000
    C273     C        0.12233    0.92707    0.20477    1.000
    Co23     Co       0.92211    0.64080    0.41626    1.000
    Co24     Co       0.00424    0.67182    0.57950    1.000
    O111     O        0.05939    0.64664    0.60087    1.000
    O112     O        0.04308    0.57491    0.67220    1.000
    O113     O        0.05218    0.40860    0.44805    1.000
    O114     O        0.06769    0.42374    0.57075    1.000
    O115     O        0.10745    0.60361    0.35097    1.000
    O116     O        0.04196    0.71421    0.48217    1.000
    O117     O        0.99158    0.70352    0.37957    1.000
    O118     O        0.25086    0.95196    0.41457    1.000
    O119     O        0.22463    0.88914    0.50657    1.000
    O120     O        0.08238    0.88275    0.24857    1.000
    C274     C        0.09253    0.94087    0.14397    1.000
    C275     C        0.12743    0.95767    0.06777    1.000
    C276     C        0.08953    0.91237    0.12157    1.000
    C277     C        0.06650    0.78910    0.94380    1.000
    C278     C        0.09300    0.82830    0.87990    1.000
    C279     C        0.14460    0.87570    0.88970    1.000
    H157     H        0.16180    0.88470    0.93770    1.000
    C280     C        0.17068    0.90966    0.82870    1.000
    C281     C        0.22800    0.95770    0.83800    1.000
    C282     C        0.14565    0.89784    0.75780    1.000
    H158     H        0.16430    0.92070    0.71580    1.000
    C283     C        0.09280    0.85180    0.75060    1.000
    C284     C        0.06680    0.81640    0.81050    1.000
    H159     H        0.03130    0.78420    0.80420    1.000
    C285     C        0.08290    0.87620    0.62280    1.000
    H160     H        0.09080    0.91330    0.64030    1.000
    H161     H        0.11740    0.87960    0.60170    1.000
    C286     C        0.03800    0.85430    0.56470    1.000
    H162     H        0.03230    0.81840    0.54540    1.000
    H163     H        0.00280    0.84750    0.58810    1.000
    C287     C        0.05220    0.89450    0.50000    1.000
    H164     H        0.09000    0.90650    0.48250    1.000
    H165     H        0.02580    0.87600    0.45880    1.000
    H166     H        0.04990    0.92680    0.51670    1.000
    C288     C        0.93450    0.63490    0.75510    1.000
    C289     C        0.87760    0.61790    0.73050    1.000
    C290     C        0.84600    0.63650    0.76790    1.000
    H167     H        0.86060    0.65960    0.81090    1.000
    C291     C        0.79290    0.62100    0.74180    1.000
    C292     C        0.75910    0.64230    0.77940    1.000
    C293     C        0.77130    0.58700    0.67910    1.000
    H168     H        0.73540    0.57730    0.66090    1.000
    C294     C        0.80190    0.56740    0.64340    1.000
    C295     C        0.85520    0.58320    0.66850    1.000
    H169     H        0.87650    0.57010    0.64300    1.000
    C296     C        0.73960    0.52860    0.53810    1.000
    Co25     Co       0.02587    0.61465    0.74959    1.000
    Co26     Co       0.99485    0.66576    0.91283    1.000
    O121     O        0.02003    0.74609    0.93420    1.000
    O122     O        0.09176    0.80151    0.00553    1.000
    O123     O        0.25807    0.97692    0.78138    1.000
    O124     O        0.24293    0.97729    0.90408    1.000
    O125     O        0.06306    0.83718    0.68430    1.000
    O126     O        0.95246    0.66109    0.81550    1.000
    O127     O        0.96315    0.62140    0.71290    1.000
    O128     O        0.71471    0.63224    0.74790    1.000
    O129     O        0.77753    0.66883    0.83990    1.000
    O130     O        0.78392    0.53297    0.58190    1.000
    C297     C        0.72580    0.48500    0.47730    1.000
    C298     C        0.70900    0.50310    0.40110    1.000
    C299     C        0.75430    0.51050    0.45490    1.000
    C300     C        0.73317    0.12243    0.27713    1.000
    C301     C        0.75967    0.16163    0.21323    1.000
    C302     C        0.81127    0.20903    0.22303    1.000
    H170     H        0.82847    0.21803    0.27103    1.000
    C303     C        0.83735    0.24299    0.16203    1.000
    C304     C        0.89467    0.29103    0.17133    1.000
    C305     C        0.81232    0.23117    0.09113    1.000
    H171     H        0.83097    0.25403    0.04913    1.000
    C306     C        0.75947    0.18513    0.08393    1.000
    C307     C        0.73347    0.14973    0.14383    1.000
    H172     H        0.69797    0.11753    0.13753    1.000
    C308     C        0.74957    0.20953    0.95613    1.000
    H173     H        0.75747    0.24663    0.97363    1.000
    H174     H        0.78407    0.21293    0.93503    1.000
    C309     C        0.70467    0.18763    0.89803    1.000
    H175     H        0.69897    0.15173    0.87873    1.000
    H176     H        0.66947    0.18083    0.92143    1.000
    C310     C        0.71887    0.22783    0.83333    1.000
    H177     H        0.75667    0.23983    0.81583    1.000
    H178     H        0.69247    0.20933    0.79213    1.000
    H179     H        0.71657    0.26013    0.85003    1.000
    C311     C        0.60117    0.96823    0.08843    1.000
    C312     C        0.54427    0.95123    0.06383    1.000
    C313     C        0.51267    0.96983    0.10123    1.000
    H180     H        0.52727    0.99293    0.14423    1.000
    C314     C        0.45957    0.95433    0.07513    1.000
    C315     C        0.42577    0.97563    0.11273    1.000
    C316     C        0.43797    0.92033    0.01243    1.000
    H181     H        0.40207    0.91063    0.99423    1.000
    C317     C        0.46857    0.90073    0.97673    1.000
    C318     C        0.52187    0.91653    0.00183    1.000
    H182     H        0.54317    0.90343    0.97633    1.000
    C319     C        0.40627    0.86193    0.87143    1.000
    Co27     Co       0.69254    0.94798    0.08292    1.000
    Co28     Co       0.66152    0.99909    0.24616    1.000
    O131     O        0.68670    0.07942    0.26753    1.000
    O132     O        0.75843    0.13484    0.33886    1.000
    O133     O        0.92474    0.31025    0.11471    1.000
    O134     O        0.90960    0.31062    0.23741    1.000
    O135     O        0.72973    0.17051    0.01763    1.000
    O136     O        0.61913    0.99442    0.14883    1.000
    O137     O        0.62982    0.95473    0.04623    1.000
    O138     O        0.38138    0.96557    0.08123    1.000
    O139     O        0.44420    0.00216    0.17323    1.000
    O140     O        0.45059    0.86630    0.91523    1.000
    C320     C        0.39247    0.81833    0.81063    1.000
    C321     C        0.37567    0.83643    0.73443    1.000
    C322     C        0.42097    0.84383    0.78823    1.000
    C323     C        0.39983    0.45577    0.61047    1.000
    C324     C        0.42633    0.49497    0.54657    1.000
    C325     C        0.47793    0.54237    0.55637    1.000
    H183     H        0.49513    0.55137    0.60437    1.000
    C326     C        0.50401    0.57633    0.49537    1.000
    C327     C        0.56133    0.62437    0.50467    1.000
    C328     C        0.47898    0.56451    0.42447    1.000
    H184     H        0.49763    0.58737    0.38247    1.000
    C329     C        0.42613    0.51847    0.41727    1.000
    C330     C        0.40013    0.48307    0.47717    1.000
    H185     H        0.36463    0.45087    0.47087    1.000
    C331     C        0.41623    0.54287    0.28947    1.000
    H186     H        0.42413    0.57997    0.30697    1.000
    H187     H        0.45073    0.54627    0.26837    1.000
    C332     C        0.37133    0.52097    0.23137    1.000
    H188     H        0.36563    0.48507    0.21207    1.000
    H189     H        0.33613    0.51417    0.25477    1.000
    C333     C        0.38553    0.56117    0.16667    1.000
    H190     H        0.42333    0.57317    0.14917    1.000
    H191     H        0.35913    0.54267    0.12547    1.000
    H192     H        0.38323    0.59347    0.18337    1.000
    C334     C        0.26783    0.30157    0.42177    1.000
    C335     C        0.21093    0.28457    0.39717    1.000
    C336     C        0.17933    0.30317    0.43457    1.000
    H193     H        0.19393    0.32627    0.47757    1.000
    C337     C        0.12623    0.28767    0.40847    1.000
    C338     C        0.09243    0.30897    0.44607    1.000
    C339     C        0.10463    0.25367    0.34577    1.000
    H194     H        0.06873    0.24397    0.32757    1.000
    C340     C        0.13523    0.23407    0.31007    1.000
    C341     C        0.18853    0.24987    0.33517    1.000
    H195     H        0.20983    0.23677    0.30967    1.000
    C342     C        0.07293    0.19527    0.20477    1.000
    Co29     Co       0.35920    0.28132    0.41626    1.000
    Co30     Co       0.32818    0.33243    0.57950    1.000
    O141     O        0.35336    0.41276    0.60087    1.000
    O142     O        0.42509    0.46818    0.67220    1.000
    O143     O        0.59140    0.64359    0.44805    1.000
    O144     O        0.57626    0.64396    0.57075    1.000
    O145     O        0.39639    0.50385    0.35097    1.000
    O146     O        0.28579    0.32776    0.48217    1.000
    O147     O        0.29648    0.28807    0.37957    1.000
    O148     O        0.04804    0.29891    0.41457    1.000
    O149     O        0.11086    0.33550    0.50657    1.000
    O150     O        0.11725    0.19964    0.24857    1.000
    C343     C        0.05913    0.15167    0.14397    1.000
    C344     C        0.04233    0.16977    0.06777    1.000
    C345     C        0.08763    0.17717    0.12157    1.000
    C346     C        0.21090    0.27740    0.94380    1.000
    C347     C        0.17170    0.26470    0.87990    1.000
    C348     C        0.12430    0.26890    0.88970    1.000
    H196     H        0.11530    0.27710    0.93770    1.000
    C349     C        0.09034    0.26102    0.82870    1.000
    C350     C        0.04230    0.27030    0.83800    1.000
    C351     C        0.10216    0.24781    0.75780    1.000
    H197     H        0.07930    0.24360    0.71580    1.000
    C352     C        0.14820    0.24100    0.75060    1.000
    C353     C        0.18360    0.25040    0.81050    1.000
    H198     H        0.21580    0.24710    0.80420    1.000
    C354     C        0.12380    0.20670    0.62280    1.000
    H199     H        0.08670    0.17750    0.64030    1.000
    H200     H        0.12040    0.23780    0.60170    1.000
    C355     C        0.14570    0.18370    0.56470    1.000
    H201     H        0.18160    0.21390    0.54540    1.000
    H202     H        0.15250    0.15530    0.58810    1.000
    C356     C        0.10550    0.15770    0.50000    1.000
    H203     H        0.09350    0.18350    0.48250    1.000
    H204     H        0.12400    0.14980    0.45880    1.000
    H205     H        0.07320    0.12310    0.51670    1.000
    C357     C        0.36510    0.29960    0.75510    1.000
    C358     C        0.38210    0.25970    0.73050    1.000
    C359     C        0.36350    0.20950    0.76790    1.000
    H206     H        0.34040    0.20100    0.81090    1.000
    C360     C        0.37900    0.17190    0.74180    1.000
    C361     C        0.35770    0.11680    0.77940    1.000
    C362     C        0.41300    0.18430    0.67910    1.000
    H207     H        0.42270    0.15810    0.66090    1.000
    C363     C        0.43260    0.23450    0.64340    1.000
    C364     C        0.41680    0.27200    0.66850    1.000
    H208     H        0.42990    0.30640    0.64300    1.000
    C365     C        0.47140    0.21100    0.53810    1.000
    Co31     Co       0.38535    0.41122    0.74959    1.000
    Co32     Co       0.33424    0.32909    0.91283    1.000
    O151     O        0.25391    0.27394    0.93420    1.000
    O152     O        0.19849    0.29025    0.00553    1.000
    O153     O        0.02308    0.28115    0.78138    1.000
    O154     O        0.02271    0.26564    0.90408    1.000
    O155     O        0.16282    0.22588    0.68430    1.000
    O156     O        0.33891    0.29137    0.81550    1.000
    O157     O        0.37860    0.34175    0.71290    1.000
    O158     O        0.36776    0.08247    0.74790    1.000
    O159     O        0.33117    0.10870    0.83990    1.000
    O160     O        0.46703    0.25095    0.58190    1.000
    C366     C        0.51500    0.24080    0.47730    1.000
    C367     C        0.49690    0.20590    0.40110    1.000
    C368     C        0.48950    0.24380    0.45490    1.000
    C369     C        0.87757    0.61073    0.27713    1.000
    C370     C        0.83837    0.59803    0.21323    1.000
    C371     C        0.79097    0.60223    0.22303    1.000
    H209     H        0.78197    0.61043    0.27103    1.000
    C372     C        0.75701    0.59435    0.16203    1.000
    C373     C        0.70897    0.60363    0.17133    1.000
    C374     C        0.76883    0.58114    0.09113    1.000
    H210     H        0.74597    0.57693    0.04913    1.000
    C375     C        0.81487    0.57433    0.08393    1.000
    C376     C        0.85027    0.58373    0.14383    1.000
    H211     H        0.88247    0.58043    0.13753    1.000
    C377     C        0.79047    0.54003    0.95613    1.000
    H212     H        0.75337    0.51083    0.97363    1.000
    H213     H        0.78707    0.57113    0.93503    1.000
    C378     C        0.81237    0.51703    0.89803    1.000
    H214     H        0.84827    0.54723    0.87873    1.000
    H215     H        0.81917    0.48863    0.92143    1.000
    C379     C        0.77217    0.49103    0.83333    1.000
    H216     H        0.76017    0.51683    0.81583    1.000
    H217     H        0.79067    0.48313    0.79213    1.000
    H218     H        0.73987    0.45643    0.85003    1.000
    C380     C        0.03177    0.63293    0.08843    1.000
    C381     C        0.04877    0.59303    0.06383    1.000
    C382     C        0.03017    0.54283    0.10123    1.000
    H219     H        0.00707    0.53433    0.14423    1.000
    C383     C        0.04567    0.50523    0.07513    1.000
    C384     C        0.02437    0.45013    0.11273    1.000
    C385     C        0.07967    0.51763    0.01243    1.000
    H220     H        0.08937    0.49143    0.99423    1.000
    C386     C        0.09927    0.56783    0.97673    1.000
    C387     C        0.08347    0.60533    0.00183    1.000
    H221     H        0.09657    0.63973    0.97633    1.000
    C388     C        0.13807    0.54433    0.87143    1.000
    Co33     Co       0.05202    0.74455    0.08292    1.000
    Co34     Co       0.00091    0.66242    0.24616    1.000
    O161     O        0.92058    0.60727    0.26753    1.000
    O162     O        0.86516    0.62358    0.33886    1.000
    O163     O        0.68975    0.61448    0.11471    1.000
    O164     O        0.68938    0.59897    0.23741    1.000
    O165     O        0.82949    0.55921    0.01763    1.000
    O166     O        0.00558    0.62470    0.14883    1.000
    O167     O        0.04527    0.67508    0.04623    1.000
    O168     O        0.03443    0.41580    0.08123    1.000
    O169     O        0.99784    0.44203    0.17323    1.000
    O170     O        0.13370    0.58428    0.91523    1.000
    C389     C        0.18167    0.57413    0.81063    1.000
    C390     C        0.16357    0.53923    0.73443    1.000
    C391     C        0.15617    0.57713    0.78823    1.000
    C392     C        0.54423    0.94407    0.61047    1.000
    C393     C        0.50503    0.93137    0.54657    1.000
    C394     C        0.45763    0.93557    0.55637    1.000
    H222     H        0.44863    0.94377    0.60437    1.000
    C395     C        0.42367    0.92769    0.49537    1.000
    C396     C        0.37563    0.93697    0.50467    1.000
    C397     C        0.43549    0.91448    0.42447    1.000
    H223     H        0.41263    0.91027    0.38247    1.000
    C398     C        0.48153    0.90767    0.41727    1.000
    C399     C        0.51693    0.91707    0.47717    1.000
    H224     H        0.54913    0.91377    0.47087    1.000
    C400     C        0.45713    0.87337    0.28947    1.000
    H225     H        0.42003    0.84417    0.30697    1.000
    H226     H        0.45373    0.90447    0.26837    1.000
    C401     C        0.47903    0.85037    0.23137    1.000
    H227     H        0.51493    0.88057    0.21207    1.000
    H228     H        0.48583    0.82197    0.25477    1.000
    C402     C        0.43883    0.82437    0.16667    1.000
    H229     H        0.42683    0.85017    0.14917    1.000
    H230     H        0.45733    0.81647    0.12547    1.000
    H231     H        0.40653    0.78977    0.18337    1.000
    C403     C        0.69843    0.96627    0.42177    1.000
    C404     C        0.71543    0.92637    0.39717    1.000
    C405     C        0.69683    0.87617    0.43457    1.000
    H232     H        0.67373    0.86767    0.47757    1.000
    C406     C        0.71233    0.83857    0.40847    1.000
    C407     C        0.69103    0.78347    0.44607    1.000
    C408     C        0.74633    0.85097    0.34577    1.000
    H233     H        0.75603    0.82477    0.32757    1.000
    C409     C        0.76593    0.90117    0.31007    1.000
    C410     C        0.75013    0.93867    0.33517    1.000
    H234     H        0.76323    0.97307    0.30967    1.000
    C411     C        0.80473    0.87767    0.20477    1.000
    Co35     Co       0.71868    0.07789    0.41626    1.000
    Co36     Co       0.66757    0.99576    0.57950    1.000
    O171     O        0.58724    0.94061    0.60087    1.000
    O172     O        0.53182    0.95692    0.67220    1.000
    O173     O        0.35641    0.94782    0.44805    1.000
    O174     O        0.35604    0.93231    0.57075    1.000
    O175     O        0.49615    0.89255    0.35097    1.000
    O176     O        0.67224    0.95804    0.48217    1.000
    O177     O        0.71193    0.00842    0.37957    1.000
    O178     O        0.70109    0.74914    0.41457    1.000
    O179     O        0.66450    0.77537    0.50657    1.000
    O180     O        0.80036    0.91762    0.24857    1.000
    C412     C        0.84833    0.90747    0.14397    1.000
    C413     C        0.83023    0.87257    0.06777    1.000
    C414     C        0.82283    0.91047    0.12157    1.000
