# CIF file generated by openbabel 3.1.0, see https://openbabel.org
data_I
_chemical_name_common 'image0'
_cell_length_a 6.2081
_cell_length_b 12.681
_cell_length_c 10.414
_cell_angle_alpha 90
_cell_angle_beta 91.21
_cell_angle_gamma 90
_space_group_name_H-M_alt 'P 1'
_space_group_name_Hall 'P 1'
loop_
    _symmetry_equiv_pos_as_xyz
    x,y,z
loop_
    _atom_site_label
    _atom_site_type_symbol
    _atom_site_fract_x
    _atom_site_fract_y
    _atom_site_fract_z
    _atom_site_occupancy
    Co1      Co       0.16580    0.74660    0.27566    1.000
    O1       O        0.90370    0.15320    0.84210    1.000
    N1       N        0.01800    0.85460    0.15110    1.000
    O2       O        0.59060    0.14280    0.93670    1.000
    O3       O        0.43640    0.36490    0.82190    1.000
    C1       C        0.86510    0.02370    0.00660    1.000
    N2       N        0.31460    0.65740    0.13700    1.000
    O4       O        0.75370    0.38470    0.91330    1.000
    C2       C        0.60300    0.54410    0.07790    1.000
    H1       H        0.74320    0.52120    0.09380    1.000
    C3       C        0.06470    0.98160    0.98440    1.000
    H2       H        0.14960    0.00900    0.91990    1.000
    C4       C        0.27420    0.54130    0.95630    1.000
    H3       H        0.18760    0.51450    0.89000    1.000
    C5       C        0.56420    0.41110    0.90080    1.000
    C6       C        0.51150    0.62130    0.15380    1.000
    H4       H        0.59480    0.64910    0.22090    1.000
    C7       C        0.47840    0.50140    0.97600    1.000
    C8       C        0.13960    0.89710    0.05960    1.000
    H5       H        0.27630    0.86990    0.04590    1.000
    C9       C        0.82350    0.89690    0.17470    1.000
    H6       H        0.74130    0.86850    0.23980    1.000
    C10      C        0.19570    0.62080    0.03360    1.000
    H7       H        0.06080    0.64970    0.01530    1.000
    C11      C        0.74250    0.98180    0.10430    1.000
    H8       H        0.60820    0.01010    0.12230    1.000
    C12      C        0.77800    0.11510    0.92660    1.000
    Co2      Co       0.66580    0.25340    0.77566    1.000
    O5       O        0.40370    0.84680    0.34210    1.000
    N3       N        0.51800    0.14540    0.65110    1.000
    O6       O        0.09060    0.85720    0.43670    1.000
    O7       O        0.93640    0.63510    0.32190    1.000
    C13      C        0.36510    0.97630    0.50660    1.000
    N4       N        0.81460    0.34260    0.63700    1.000
    O8       O        0.25370    0.61530    0.41330    1.000
    C14      C        0.10300    0.45590    0.57790    1.000
    H9       H        0.24320    0.47880    0.59380    1.000
    C15      C        0.56470    0.01840    0.48440    1.000
    H10      H        0.64960    0.99100    0.41990    1.000
    C16      C        0.77420    0.45870    0.45630    1.000
    H11      H        0.68760    0.48550    0.39000    1.000
    C17      C        0.06420    0.58890    0.40080    1.000
    C18      C        0.01150    0.37870    0.65380    1.000
    H12      H        0.09480    0.35090    0.72090    1.000
    C19      C        0.97840    0.49860    0.47600    1.000
    C20      C        0.63960    0.10290    0.55960    1.000
    H13      H        0.77630    0.13010    0.54590    1.000
    C21      C        0.32350    0.10310    0.67470    1.000
    H14      H        0.24130    0.13150    0.73980    1.000
    C22      C        0.69570    0.37920    0.53360    1.000
    H15      H        0.56080    0.35030    0.51530    1.000
    C23      C        0.24250    0.01820    0.60430    1.000
    H16      H        0.10820    0.98990    0.62230    1.000
    C24      C        0.27800    0.88490    0.42660    1.000
