# CIF file generated by openbabel 3.1.0, see https://openbabel.org
data_I
_chemical_name_common 'image0'
_cell_length_a 15.0418
_cell_length_b 15.0418
_cell_length_c 11.9611
_cell_angle_alpha 90
_cell_angle_beta 90
_cell_angle_gamma 90
_space_group_name_H-M_alt 'P 1'
_space_group_name_Hall 'P 1'
loop_
    _symmetry_equiv_pos_as_xyz
    x,y,z
loop_
    _atom_site_label
    _atom_site_type_symbol
    _atom_site_fract_x
    _atom_site_fract_y
    _atom_site_fract_z
    _atom_site_occupancy
    O1       O        0.87610    0.13360    0.23610    1.000
    O2       O        0.84390    0.03950    0.37290    1.000
    C1       C        0.83880    0.11880    0.33180    1.000
    C2       C        0.79370    0.18760    0.38990    1.000
    C3       C        0.74950    0.25330    0.33080    1.000
    C4       C        0.79380    0.18900    0.50560    1.000
    C5       C        0.70550    0.32040    0.38750    1.000
    H1       H        0.74940    0.25230    0.25310    1.000
    C6       C        0.74970    0.25610    0.56226    1.000
    H2       H        0.82340    0.14490    0.54530    1.000
    C7       C        0.70560    0.32180    0.50320    1.000
    C8       C        0.66020    0.38770    0.32690    1.000
    H3       H        0.67600    0.36680    0.54130    1.000
    O3       O        0.64270    0.46380    0.37230    1.000
    O4       O        0.63520    0.37490    0.22470    1.000
    O5       O        0.12390    0.86640    0.73610    1.000
    O6       O        0.15610    0.96050    0.87290    1.000
    C9       C        0.16120    0.88120    0.83180    1.000
    C10      C        0.20630    0.81240    0.88990    1.000
    C11      C        0.25050    0.74670    0.83080    1.000
    C12      C        0.20620    0.81100    0.00560    1.000
    C13      C        0.29450    0.67960    0.88750    1.000
    H4       H        0.25060    0.74770    0.75310    1.000
    C14      C        0.25030    0.74390    0.06226    1.000
    H5       H        0.17660    0.85510    0.04530    1.000
    C15      C        0.29440    0.67820    0.00320    1.000
    C16      C        0.33980    0.61230    0.82690    1.000
    H6       H        0.32400    0.63320    0.04130    1.000
    O7       O        0.35730    0.53620    0.87230    1.000
    O8       O        0.36480    0.62510    0.72470    1.000
    O9       O        0.86640    0.87610    0.48610    1.000
    O10      O        0.96050    0.84390    0.62290    1.000
    C17      C        0.88120    0.83880    0.58180    1.000
    C18      C        0.81240    0.79370    0.63990    1.000
    C19      C        0.74670    0.74950    0.58080    1.000
    C20      C        0.81100    0.79380    0.75560    1.000
    C21      C        0.67960    0.70550    0.63750    1.000
    H7       H        0.74770    0.74940    0.50310    1.000
    C22      C        0.74390    0.74970    0.81226    1.000
    H8       H        0.85510    0.82340    0.79530    1.000
    C23      C        0.67820    0.70560    0.75320    1.000
    C24      C        0.61230    0.66020    0.57690    1.000
    H9       H        0.63320    0.67600    0.79130    1.000
    O11      O        0.53620    0.64270    0.62230    1.000
    O12      O        0.62510    0.63520    0.47470    1.000
    O13      O        0.13360    0.12390    0.98610    1.000
    O14      O        0.03950    0.15610    0.12290    1.000
    C25      C        0.11880    0.16120    0.08180    1.000
    C26      C        0.18760    0.20630    0.13990    1.000
    C27      C        0.25330    0.25050    0.08080    1.000
    C28      C        0.18900    0.20620    0.25560    1.000
    C29      C        0.32040    0.29450    0.13750    1.000
    H10      H        0.25230    0.25060    0.00310    1.000
    C30      C        0.25610    0.25030    0.31226    1.000
    H11      H        0.14490    0.17660    0.29530    1.000
    C31      C        0.32180    0.29440    0.25320    1.000
    C32      C        0.38770    0.33980    0.07690    1.000
    H12      H        0.36680    0.32400    0.29130    1.000
    O15      O        0.46380    0.35730    0.12230    1.000
    O16      O        0.37490    0.36480    0.97470    1.000
    O17      O        0.12390    0.13360    0.76390    1.000
    O18      O        0.15610    0.03950    0.62710    1.000
    C33      C        0.16120    0.11880    0.66820    1.000
    C34      C        0.20630    0.18760    0.61010    1.000
    C35      C        0.25050    0.25330    0.66920    1.000
    C36      C        0.20620    0.18900    0.49440    1.000
    C37      C        0.29450    0.32040    0.61250    1.000
    H13      H        0.25060    0.25230    0.74690    1.000
    C38      C        0.25030    0.25610    0.43774    1.000
    H14      H        0.17660    0.14490    0.45470    1.000
    C39      C        0.29440    0.32180    0.49680    1.000
    C40      C        0.33980    0.38770    0.67310    1.000
    H15      H        0.32400    0.36680    0.45870    1.000
    O19      O        0.35730    0.46380    0.62770    1.000
    O20      O        0.36480    0.37490    0.77530    1.000
    O21      O        0.87610    0.86640    0.26390    1.000
    O22      O        0.84390    0.96050    0.12710    1.000
    C41      C        0.83880    0.88120    0.16820    1.000
    C42      C        0.79370    0.81240    0.11010    1.000
    C43      C        0.74950    0.74670    0.16920    1.000
    C44      C        0.79380    0.81100    0.99440    1.000
    C45      C        0.70550    0.67960    0.11250    1.000
    H16      H        0.74940    0.74770    0.24690    1.000
    C46      C        0.74970    0.74390    0.93774    1.000
    H17      H        0.82340    0.85510    0.95470    1.000
    C47      C        0.70560    0.67820    0.99680    1.000
    C48      C        0.66020    0.61230    0.17310    1.000
    H18      H        0.67600    0.63320    0.95870    1.000
    O23      O        0.64270    0.53620    0.12770    1.000
    O24      O        0.63520    0.62510    0.27530    1.000
    O25      O        0.13360    0.87610    0.51390    1.000
    O26      O        0.03950    0.84390    0.37710    1.000
    C49      C        0.11880    0.83880    0.41820    1.000
    C50      C        0.18760    0.79370    0.36010    1.000
    C51      C        0.25330    0.74950    0.41920    1.000
    C52      C        0.18900    0.79380    0.24440    1.000
    C53      C        0.32040    0.70550    0.36250    1.000
    H19      H        0.25230    0.74940    0.49690    1.000
    C54      C        0.25610    0.74970    0.18774    1.000
    H20      H        0.14490    0.82340    0.20470    1.000
    C55      C        0.32180    0.70560    0.24680    1.000
    C56      C        0.38770    0.66020    0.42310    1.000
    H21      H        0.36680    0.67600    0.20870    1.000
    O27      O        0.46380    0.64270    0.37770    1.000
    O28      O        0.37490    0.63520    0.52530    1.000
    O29      O        0.86640    0.12390    0.01390    1.000
    O30      O        0.96050    0.15610    0.87710    1.000
    C57      C        0.88120    0.16120    0.91820    1.000
    C58      C        0.81240    0.20630    0.86010    1.000
    C59      C        0.74670    0.25050    0.91920    1.000
    C60      C        0.81100    0.20620    0.74440    1.000
    C61      C        0.67960    0.29450    0.86250    1.000
    H22      H        0.74770    0.25060    0.99690    1.000
    C62      C        0.74390    0.25030    0.68774    1.000
    H23      H        0.85510    0.17660    0.70470    1.000
    C63      C        0.67820    0.29440    0.74680    1.000
    C64      C        0.61230    0.33980    0.92310    1.000
    H24      H        0.63320    0.32400    0.70870    1.000
    O31      O        0.53620    0.35730    0.87770    1.000
    O32      O        0.62510    0.36480    0.02530    1.000
    V1       V        0.93600    0.06400    0.12500    1.000
    V2       V        0.06400    0.93600    0.62500    1.000
    V3       V        0.93600    0.93600    0.37500    1.000
    V4       V        0.06400    0.06400    0.87500    1.000
    O33      O        0.97660    0.00000    0.25000    1.000
    O34      O        0.02340    0.00000    0.75000    1.000
    O35      O        0.00000    0.97660    0.50000    1.000
    O36      O        0.00000    0.02340    0.00000    1.000
    V5       V        0.55600    0.55600    0.37500    1.000
    V6       V        0.44400    0.44400    0.87500    1.000
    V7       V        0.44400    0.55600    0.62500    1.000
    V8       V        0.55600    0.44400    0.12500    1.000
    O37      O        0.48780    0.50000    0.25000    1.000
    O38      O        0.51220    0.50000    0.75000    1.000
    O39      O        0.50000    0.48780    0.50000    1.000
    O40      O        0.50000    0.51220    0.00000    1.000
