# CIF file generated by openbabel 3.1.0, see https://openbabel.org
data_I
_chemical_name_common 'image0'
_cell_length_a 10.28
_cell_length_b 12.7
_cell_length_c 17.86
_cell_angle_alpha 90
_cell_angle_beta 102.47
_cell_angle_gamma 90
_space_group_name_H-M_alt 'P 1'
_space_group_name_Hall 'P 1'
loop_
    _symmetry_equiv_pos_as_xyz
    x,y,z
loop_
    _atom_site_label
    _atom_site_type_symbol
    _atom_site_fract_x
    _atom_site_fract_y
    _atom_site_fract_z
    _atom_site_occupancy
    In1      In       0.94305    0.97821    0.12591    1.000
    In2      In       0.74572    0.92740    0.27769    1.000
    In3      In       0.46876    0.11624    0.20822    1.000
    In4      In       0.36705    0.85219    0.42227    1.000
    P1       P        0.20258    0.08959    0.05842    1.000
    P2       P        0.06511    0.88370    0.30750    1.000
    P3       P        0.72068    0.65968    0.29941    1.000
    P4       P        0.58086    0.04613    0.39248    1.000
    F1       F        0.78760    0.90610    0.16800    1.000
    F2       F        0.54840    0.96160    0.21810    1.000
    O1       O        0.17480    0.02130    0.98670    1.000
    O2       O        0.34940    0.07910    0.10030    1.000
    O3       O        0.11430    0.05860    0.11340    1.000
    O4       O        0.17500    0.20560    0.03420    1.000
    O5       O        0.09280    0.77150    0.28080    1.000
    O6       O        0.05830    0.95970    0.23970    1.000
    O7       O        0.18160    0.91630    0.37280    1.000
    O8       O        0.93770    0.88720    0.33840    1.000
    O9       O        0.86790    0.65920    0.33880    1.000
    O10      O        0.63630    0.62880    0.35760    1.000
    O11      O        0.67410    0.77100    0.27010    1.000
    O12      O        0.69100    0.58400    0.23120    1.000
    O13      O        0.56120    0.12780    0.32830    1.000
    O14      O        0.67930    0.95770    0.37960    1.000
    O15      O        0.44550    0.99540    0.39320    1.000
    O16      O        0.63960    0.09880    0.46830    1.000
    In5      In       0.55695    0.47821    0.37409    1.000
    In6      In       0.75428    0.42740    0.22231    1.000
    In7      In       0.03124    0.61624    0.29178    1.000
    In8      In       0.13295    0.35219    0.07773    1.000
    P5       P        0.29742    0.58959    0.44158    1.000
    P6       P        0.43489    0.38370    0.19250    1.000
    P7       P        0.77932    0.15968    0.20059    1.000
    P8       P        0.91914    0.54613    0.10752    1.000
    F3       F        0.71240    0.40610    0.33200    1.000
    F4       F        0.95160    0.46160    0.28190    1.000
    O17      O        0.32520    0.52130    0.51330    1.000
    O18      O        0.15060    0.57910    0.39970    1.000
    O19      O        0.38570    0.55860    0.38660    1.000
    O20      O        0.32500    0.70560    0.46580    1.000
    O21      O        0.40720    0.27150    0.21920    1.000
    O22      O        0.44170    0.45970    0.26030    1.000
    O23      O        0.31840    0.41630    0.12720    1.000
    O24      O        0.56230    0.38720    0.16160    1.000
    O25      O        0.63210    0.15920    0.16120    1.000
    O26      O        0.86370    0.12880    0.14240    1.000
    O27      O        0.82590    0.27100    0.22990    1.000
    O28      O        0.80900    0.08400    0.26880    1.000
    O29      O        0.93880    0.62780    0.17170    1.000
    O30      O        0.82070    0.45770    0.12040    1.000
    O31      O        0.05450    0.49540    0.10680    1.000
    O32      O        0.86040    0.59880    0.03170    1.000
    In9      In       0.05695    0.02179    0.87409    1.000
    In10     In       0.25428    0.07260    0.72231    1.000
    In11     In       0.53124    0.88376    0.79178    1.000
    In12     In       0.63295    0.14781    0.57773    1.000
    P9       P        0.79742    0.91041    0.94158    1.000
    P10      P        0.93489    0.11630    0.69250    1.000
    P11      P        0.27932    0.34032    0.70059    1.000
    P12      P        0.41914    0.95387    0.60752    1.000
    F5       F        0.21240    0.09390    0.83200    1.000
    F6       F        0.45160    0.03840    0.78190    1.000
    O33      O        0.82520    0.97870    0.01330    1.000
    O34      O        0.65060    0.92090    0.89970    1.000
    O35      O        0.88570    0.94140    0.88660    1.000
    O36      O        0.82500    0.79440    0.96580    1.000
    O37      O        0.90720    0.22850    0.71920    1.000
    O38      O        0.94170    0.04030    0.76030    1.000
    O39      O        0.81840    0.08370    0.62720    1.000
    O40      O        0.06230    0.11280    0.66160    1.000
    O41      O        0.13210    0.34080    0.66120    1.000
    O42      O        0.36370    0.37120    0.64240    1.000
    O43      O        0.32590    0.22900    0.72990    1.000
    O44      O        0.30900    0.41600    0.76880    1.000
    O45      O        0.43880    0.87220    0.67170    1.000
    O46      O        0.32070    0.04230    0.62040    1.000
    O47      O        0.55450    0.00460    0.60680    1.000
    O48      O        0.36040    0.90120    0.53170    1.000
    In13     In       0.44305    0.52179    0.62591    1.000
    In14     In       0.24572    0.57260    0.77769    1.000
    In15     In       0.96876    0.38376    0.70822    1.000
    In16     In       0.86705    0.64781    0.92227    1.000
    P13      P        0.70258    0.41041    0.55842    1.000
    P14      P        0.56511    0.61630    0.80750    1.000
    P15      P        0.22068    0.84032    0.79941    1.000
    P16      P        0.08086    0.45387    0.89248    1.000
    F7       F        0.28760    0.59390    0.66800    1.000
    F8       F        0.04840    0.53840    0.71810    1.000
    O49      O        0.67480    0.47870    0.48670    1.000
    O50      O        0.84940    0.42090    0.60030    1.000
    O51      O        0.61430    0.44140    0.61340    1.000
    O52      O        0.67500    0.29440    0.53420    1.000
    O53      O        0.59280    0.72850    0.78080    1.000
    O54      O        0.55830    0.54030    0.73970    1.000
    O55      O        0.68160    0.58370    0.87280    1.000
    O56      O        0.43770    0.61280    0.83840    1.000
    O57      O        0.36790    0.84080    0.83880    1.000
    O58      O        0.13630    0.87120    0.85760    1.000
    O59      O        0.17410    0.72900    0.77010    1.000
    O60      O        0.19100    0.91600    0.73120    1.000
    O61      O        0.06120    0.37220    0.82830    1.000
    O62      O        0.17930    0.54230    0.87960    1.000
    O63      O        0.94550    0.50460    0.89320    1.000
    O64      O        0.13960    0.40120    0.96830    1.000
