# CIF file generated by openbabel 3.1.0, see https://openbabel.org
data_I
_chemical_name_common 'image0'
_cell_length_a 35.3524
_cell_length_b 14.9797
_cell_length_c 31.0275
_cell_angle_alpha 90
_cell_angle_beta 101.951
_cell_angle_gamma 90
_space_group_name_H-M_alt 'P 1'
_space_group_name_Hall 'P 1'
loop_
    _symmetry_equiv_pos_as_xyz
    x,y,z
loop_
    _atom_site_label
    _atom_site_type_symbol
    _atom_site_fract_x
    _atom_site_fract_y
    _atom_site_fract_z
    _atom_site_occupancy
    I1       I        0.97506    0.64936    0.86861    1.000
    I2       I        0.26260    0.26685    0.69743    1.000
    I3       I        0.88102    0.73440    0.93903    1.000
    I4       I        0.36760    0.32393    0.79978    1.000
    I5       I        0.64573    0.58575    0.49128    1.000
    I6       I        0.60607    0.73323    0.60457    1.000
    Zn1      Zn       0.91854    0.61900    0.90539    1.000
    Zn2      Zn       0.32500    0.35313    0.72430    1.000
    Zn3      Zn       0.62560    0.59017    0.56492    1.000
    N1       N        0.81405    0.98930    0.72099    1.000
    N2       N        0.43201    0.98460    0.45001    1.000
    N3       N        0.88012    0.54910    0.85730    1.000
    N4       N        0.81919    0.31560    0.75045    1.000
    N5       N        0.66843    0.52610    0.60920    1.000
    N6       N        0.35861    0.33800    0.67760    1.000
    N7       N        0.78032    0.44300    0.72848    1.000
    N8       N        0.42516    0.22310    0.56147    1.000
    N9       N        0.76526    0.30480    0.69105    1.000
    N10      N        0.58010    0.50350    0.56160    1.000
    N11      N        0.46234    0.34980    0.58976    1.000
    C1       C        0.89000    0.46770    0.84680    1.000
    H1       H        0.91370    0.44330    0.86250    1.000
    C2       C        0.83440    0.45350    0.78990    1.000
    C3       C        0.44297    0.13300    0.50430    1.000
    C4       C        0.79505    0.27030    0.71960    1.000
    C5       C        0.72755    0.43800    0.66540    1.000
    C6       C        0.48328    0.33460    0.55930    1.000
    C7       C        0.46945    0.11180    0.47840    1.000
    H2       H        0.49140    0.14850    0.47890    1.000
    C8       C        0.78330    0.02480    0.69430    1.000
    H3       H        0.76540    0.98620    0.67620    1.000
    C9       C        0.83880    0.04380    0.74640    1.000
    H4       H        0.86100    0.01890    0.76510    1.000
    C10      C        0.44857    0.21320    0.53300    1.000
    C11      C        0.34700    0.28860    0.64140    1.000
    H5       H        0.32160    0.26450    0.63570    1.000
    C12      C        0.75937    0.39170    0.69680    1.000
    C13      C        0.71830    0.52480    0.67330    1.000
    H6       H        0.73220    0.55540    0.69850    1.000
    C14      C        0.84790    0.58540    0.83380    1.000
    H7       H        0.84090    0.64420    0.84050    1.000
    C15      C        0.40721    0.30960    0.61950    1.000
    C16      C        0.80979    0.40140    0.75380    1.000
    C17      C        0.51710    0.39320    0.55960    1.000
    C18      C        0.46340    0.03690    0.45230    1.000
    H8       H        0.48190    0.02160    0.43520    1.000
    C19      C        0.56330    0.46330    0.52490    1.000
    H9       H        0.57300    0.47330    0.49890    1.000
    C20      C        0.82450    0.53940    0.79970    1.000
    H10      H        0.80180    0.56660    0.78320    1.000
    C21      C        0.43270    0.29270    0.58840    1.000
    C22      C        0.80160    0.17230    0.71890    1.000
    C23      C        0.41120    0.07740    0.50230    1.000
    H11      H        0.39270    0.08940    0.51990    1.000
    C24      C        0.40710    0.00680    0.47540    1.000
    H12      H        0.38500    0.97000    0.47410    1.000
    C25      C        0.41870    0.36300    0.65630    1.000
    H13      H        0.44340    0.39090    0.66190    1.000
    C26      C        0.70610    0.39420    0.62970    1.000
    H14      H        0.71100    0.33360    0.62380    1.000
    C27      C        0.68900    0.56740    0.64470    1.000
    H15      H        0.68310    0.62770    0.65020    1.000
    C28      C        0.83370    0.13510    0.74650    1.000
    H16      H        0.85180    0.17210    0.76530    1.000
    C29      C        0.53180    0.40670    0.52290    1.000
    H17      H        0.52060    0.37750    0.49610    1.000
    C30      C        0.67680    0.44220    0.60250    1.000
    H18      H        0.66200    0.41270    0.57760    1.000
    C31      C        0.37030    0.27140    0.61230    1.000
    H19      H        0.36160    0.23390    0.58760    1.000
    C32      C        0.77650    0.11600    0.69200    1.000
    H20      H        0.75460    0.13930    0.67200    1.000
    C33      C        0.86780    0.41710    0.81420    1.000
    H21      H        0.87530    0.35800    0.80860    1.000
    C34      C        0.39370    0.37500    0.68460    1.000
    H22      H        0.40180    0.41100    0.71010    1.000
    C35      C        0.56810    0.48560    0.59750    1.000
    H23      H        0.58160    0.51150    0.62420    1.000
    C36      C        0.53650    0.43030    0.59910    1.000
    H24      H        0.52860    0.41860    0.62610    1.000
    N12      N        0.47728    0.26920    0.52927    1.000
    I7       I        0.61749    0.73355    0.58493    1.000
    I8       I        0.47506    0.14936    0.86861    1.000
    I9       I        0.76260    0.76685    0.69743    1.000
    I10      I        0.38102    0.23440    0.93903    1.000
    I11      I        0.86760    0.82393    0.79978    1.000
    I12      I        0.14573    0.08575    0.49128    1.000
    I13      I        0.10607    0.23323    0.60457    1.000
    Zn4      Zn       0.41854    0.11900    0.90539    1.000
    Zn5      Zn       0.82500    0.85313    0.72430    1.000
    Zn6      Zn       0.12560    0.09017    0.56492    1.000
    N13      N        0.31405    0.48930    0.72099    1.000
    N14      N        0.93201    0.48460    0.45001    1.000
    N15      N        0.38012    0.04910    0.85730    1.000
    N16      N        0.31919    0.81560    0.75045    1.000
    N17      N        0.16843    0.02610    0.60920    1.000
    N18      N        0.85861    0.83800    0.67760    1.000
    N19      N        0.28032    0.94300    0.72848    1.000
    N20      N        0.92516    0.72310    0.56147    1.000
    N21      N        0.26526    0.80480    0.69105    1.000
    N22      N        0.08010    0.00350    0.56160    1.000
    N23      N        0.96234    0.84980    0.58976    1.000
    C37      C        0.39000    0.96770    0.84680    1.000
    H25      H        0.41370    0.94330    0.86250    1.000
    C38      C        0.33440    0.95350    0.78990    1.000
    C39      C        0.94297    0.63300    0.50430    1.000
    C40      C        0.29505    0.77030    0.71960    1.000
    C41      C        0.22755    0.93800    0.66540    1.000
    C42      C        0.98328    0.83460    0.55930    1.000
    C43      C        0.96945    0.61180    0.47840    1.000
    H26      H        0.99140    0.64850    0.47890    1.000
    C44      C        0.28330    0.52480    0.69430    1.000
    H27      H        0.26540    0.48620    0.67620    1.000
    C45      C        0.33880    0.54380    0.74640    1.000
    H28      H        0.36100    0.51890    0.76510    1.000
    C46      C        0.94857    0.71320    0.53300    1.000
    C47      C        0.84700    0.78860    0.64140    1.000
    H29      H        0.82160    0.76450    0.63570    1.000
    C48      C        0.25937    0.89170    0.69680    1.000
    C49      C        0.21830    0.02480    0.67330    1.000
    H30      H        0.23220    0.05540    0.69850    1.000
    C50      C        0.34790    0.08540    0.83380    1.000
    H31      H        0.34090    0.14420    0.84050    1.000
    C51      C        0.90721    0.80960    0.61950    1.000
    C52      C        0.30979    0.90140    0.75380    1.000
    C53      C        0.01710    0.89320    0.55960    1.000
    C54      C        0.96340    0.53690    0.45230    1.000
    H32      H        0.98190    0.52160    0.43520    1.000
    C55      C        0.06330    0.96330    0.52490    1.000
    H33      H        0.07300    0.97330    0.49890    1.000
    C56      C        0.32450    0.03940    0.79970    1.000
    H34      H        0.30180    0.06660    0.78320    1.000
    C57      C        0.93270    0.79270    0.58840    1.000
    C58      C        0.30160    0.67230    0.71890    1.000
    C59      C        0.91120    0.57740    0.50230    1.000
    H35      H        0.89270    0.58940    0.51990    1.000
    C60      C        0.90710    0.50680    0.47540    1.000
    H36      H        0.88500    0.47000    0.47410    1.000
    C61      C        0.91870    0.86300    0.65630    1.000
    H37      H        0.94340    0.89090    0.66190    1.000
    C62      C        0.20610    0.89420    0.62970    1.000
    H38      H        0.21100    0.83360    0.62380    1.000
    C63      C        0.18900    0.06740    0.64470    1.000
    H39      H        0.18310    0.12770    0.65020    1.000
    C64      C        0.33370    0.63510    0.74650    1.000
    H40      H        0.35180    0.67210    0.76530    1.000
    C65      C        0.03180    0.90670    0.52290    1.000
    H41      H        0.02060    0.87750    0.49610    1.000
    C66      C        0.17680    0.94220    0.60250    1.000
    H42      H        0.16200    0.91270    0.57760    1.000
    C67      C        0.87030    0.77140    0.61230    1.000
    H43      H        0.86160    0.73390    0.58760    1.000
    C68      C        0.27650    0.61600    0.69200    1.000
    H44      H        0.25460    0.63930    0.67200    1.000
    C69      C        0.36780    0.91710    0.81420    1.000
    H45      H        0.37530    0.85800    0.80860    1.000
    C70      C        0.89370    0.87500    0.68460    1.000
    H46      H        0.90180    0.91100    0.71010    1.000
    C71      C        0.06810    0.98560    0.59750    1.000
    H47      H        0.08160    0.01150    0.62420    1.000
    C72      C        0.03650    0.93030    0.59910    1.000
    H48      H        0.02860    0.91860    0.62610    1.000
    N24      N        0.97728    0.76920    0.52927    1.000
    I14      I        0.11749    0.23355    0.58493    1.000
    I15      I        0.97506    0.35064    0.36861    1.000
    I16      I        0.26260    0.73315    0.19743    1.000
    I17      I        0.88102    0.26560    0.43903    1.000
    I18      I        0.36760    0.67607    0.29978    1.000
    I19      I        0.64573    0.41425    0.99128    1.000
    I20      I        0.60607    0.26677    0.10457    1.000
    Zn7      Zn       0.91854    0.38100    0.40539    1.000
    Zn8      Zn       0.32500    0.64687    0.22430    1.000
    Zn9      Zn       0.62560    0.40983    0.06492    1.000
    N25      N        0.81405    0.01070    0.22099    1.000
    N26      N        0.43201    0.01540    0.95001    1.000
    N27      N        0.88012    0.45090    0.35730    1.000
    N28      N        0.81919    0.68440    0.25045    1.000
    N29      N        0.66843    0.47390    0.10920    1.000
    N30      N        0.35861    0.66200    0.17760    1.000
    N31      N        0.78032    0.55700    0.22848    1.000
    N32      N        0.42516    0.77690    0.06147    1.000
    N33      N        0.76526    0.69520    0.19105    1.000
    N34      N        0.58010    0.49650    0.06160    1.000
    N35      N        0.46234    0.65020    0.08976    1.000
    C73      C        0.89000    0.53230    0.34680    1.000
    H49      H        0.91370    0.55670    0.36250    1.000
    C74      C        0.83440    0.54650    0.28990    1.000
    C75      C        0.44297    0.86700    0.00430    1.000
    C76      C        0.79505    0.72970    0.21960    1.000
    C77      C        0.72755    0.56200    0.16540    1.000
    C78      C        0.48328    0.66540    0.05930    1.000
    C79      C        0.46945    0.88820    0.97840    1.000
    H50      H        0.49140    0.85150    0.97890    1.000
    C80      C        0.78330    0.97520    0.19430    1.000
    H51      H        0.76540    0.01380    0.17620    1.000
    C81      C        0.83880    0.95620    0.24640    1.000
    H52      H        0.86100    0.98110    0.26510    1.000
    C82      C        0.44857    0.78680    0.03300    1.000
    C83      C        0.34700    0.71140    0.14140    1.000
    H53      H        0.32160    0.73550    0.13570    1.000
    C84      C        0.75937    0.60830    0.19680    1.000
    C85      C        0.71830    0.47520    0.17330    1.000
    H54      H        0.73220    0.44460    0.19850    1.000
    C86      C        0.84790    0.41460    0.33380    1.000
    H55      H        0.84090    0.35580    0.34050    1.000
    C87      C        0.40721    0.69040    0.11950    1.000
    C88      C        0.80979    0.59860    0.25380    1.000
    C89      C        0.51710    0.60680    0.05960    1.000
    C90      C        0.46340    0.96310    0.95230    1.000
    H56      H        0.48190    0.97840    0.93520    1.000
    C91      C        0.56330    0.53670    0.02490    1.000
    H57      H        0.57300    0.52670    0.99890    1.000
    C92      C        0.82450    0.46060    0.29970    1.000
    H58      H        0.80180    0.43340    0.28320    1.000
    C93      C        0.43270    0.70730    0.08840    1.000
    C94      C        0.80160    0.82770    0.21890    1.000
    C95      C        0.41120    0.92260    0.00230    1.000
    H59      H        0.39270    0.91060    0.01990    1.000
    C96      C        0.40710    0.99320    0.97540    1.000
    H60      H        0.38500    0.03000    0.97410    1.000
    C97      C        0.41870    0.63700    0.15630    1.000
    H61      H        0.44340    0.60910    0.16190    1.000
    C98      C        0.70610    0.60580    0.12970    1.000
    H62      H        0.71100    0.66640    0.12380    1.000
    C99      C        0.68900    0.43260    0.14470    1.000
    H63      H        0.68310    0.37230    0.15020    1.000
    C100     C        0.83370    0.86490    0.24650    1.000
    H64      H        0.85180    0.82790    0.26530    1.000
    C101     C        0.53180    0.59330    0.02290    1.000
    H65      H        0.52060    0.62250    0.99610    1.000
    C102     C        0.67680    0.55780    0.10250    1.000
    H66      H        0.66200    0.58730    0.07760    1.000
    C103     C        0.37030    0.72860    0.11230    1.000
    H67      H        0.36160    0.76610    0.08760    1.000
    C104     C        0.77650    0.88400    0.19200    1.000
    H68      H        0.75460    0.86070    0.17200    1.000
    C105     C        0.86780    0.58290    0.31420    1.000
    H69      H        0.87530    0.64200    0.30860    1.000
    C106     C        0.39370    0.62500    0.18460    1.000
    H70      H        0.40180    0.58900    0.21010    1.000
    C107     C        0.56810    0.51440    0.09750    1.000
    H71      H        0.58160    0.48850    0.12420    1.000
    C108     C        0.53650    0.56970    0.09910    1.000
    H72      H        0.52860    0.58140    0.12610    1.000
    N36      N        0.47728    0.73080    0.02927    1.000
    I21      I        0.61749    0.26645    0.08493    1.000
    I22      I        0.47506    0.85064    0.36861    1.000
    I23      I        0.76260    0.23315    0.19743    1.000
    I24      I        0.38102    0.76560    0.43903    1.000
    I25      I        0.86760    0.17607    0.29978    1.000
    I26      I        0.14573    0.91425    0.99128    1.000
    I27      I        0.10607    0.76677    0.10457    1.000
    Zn10     Zn       0.41854    0.88100    0.40539    1.000
    Zn11     Zn       0.82500    0.14687    0.22430    1.000
    Zn12     Zn       0.12560    0.90983    0.06492    1.000
    N37      N        0.31405    0.51070    0.22099    1.000
    N38      N        0.93201    0.51540    0.95001    1.000
    N39      N        0.38012    0.95090    0.35730    1.000
    N40      N        0.31919    0.18440    0.25045    1.000
    N41      N        0.16843    0.97390    0.10920    1.000
    N42      N        0.85861    0.16200    0.17760    1.000
    N43      N        0.28032    0.05700    0.22848    1.000
    N44      N        0.92516    0.27690    0.06147    1.000
    N45      N        0.26526    0.19520    0.19105    1.000
    N46      N        0.08010    0.99650    0.06160    1.000
    N47      N        0.96234    0.15020    0.08976    1.000
    C109     C        0.39000    0.03230    0.34680    1.000
    H73      H        0.41370    0.05670    0.36250    1.000
    C110     C        0.33440    0.04650    0.28990    1.000
    C111     C        0.94297    0.36700    0.00430    1.000
    C112     C        0.29505    0.22970    0.21960    1.000
    C113     C        0.22755    0.06200    0.16540    1.000
    C114     C        0.98328    0.16540    0.05930    1.000
    C115     C        0.96945    0.38820    0.97840    1.000
    H74      H        0.99140    0.35150    0.97890    1.000
    C116     C        0.28330    0.47520    0.19430    1.000
    H75      H        0.26540    0.51380    0.17620    1.000
    C117     C        0.33880    0.45620    0.24640    1.000
    H76      H        0.36100    0.48110    0.26510    1.000
    C118     C        0.94857    0.28680    0.03300    1.000
    C119     C        0.84700    0.21140    0.14140    1.000
    H77      H        0.82160    0.23550    0.13570    1.000
    C120     C        0.25937    0.10830    0.19680    1.000
    C121     C        0.21830    0.97520    0.17330    1.000
    H78      H        0.23220    0.94460    0.19850    1.000
    C122     C        0.34790    0.91460    0.33380    1.000
    H79      H        0.34090    0.85580    0.34050    1.000
    C123     C        0.90721    0.19040    0.11950    1.000
    C124     C        0.30979    0.09860    0.25380    1.000
    C125     C        0.01710    0.10680    0.05960    1.000
    C126     C        0.96340    0.46310    0.95230    1.000
    H80      H        0.98190    0.47840    0.93520    1.000
    C127     C        0.06330    0.03670    0.02490    1.000
    H81      H        0.07300    0.02670    0.99890    1.000
    C128     C        0.32450    0.96060    0.29970    1.000
    H82      H        0.30180    0.93340    0.28320    1.000
    C129     C        0.93270    0.20730    0.08840    1.000
    C130     C        0.30160    0.32770    0.21890    1.000
    C131     C        0.91120    0.42260    0.00230    1.000
    H83      H        0.89270    0.41060    0.01990    1.000
    C132     C        0.90710    0.49320    0.97540    1.000
    H84      H        0.88500    0.53000    0.97410    1.000
    C133     C        0.91870    0.13700    0.15630    1.000
    H85      H        0.94340    0.10910    0.16190    1.000
    C134     C        0.20610    0.10580    0.12970    1.000
    H86      H        0.21100    0.16640    0.12380    1.000
    C135     C        0.18900    0.93260    0.14470    1.000
    H87      H        0.18310    0.87230    0.15020    1.000
    C136     C        0.33370    0.36490    0.24650    1.000
    H88      H        0.35180    0.32790    0.26530    1.000
    C137     C        0.03180    0.09330    0.02290    1.000
    H89      H        0.02060    0.12250    0.99610    1.000
    C138     C        0.17680    0.05780    0.10250    1.000
    H90      H        0.16200    0.08730    0.07760    1.000
    C139     C        0.87030    0.22860    0.11230    1.000
    H91      H        0.86160    0.26610    0.08760    1.000
    C140     C        0.27650    0.38400    0.19200    1.000
    H92      H        0.25460    0.36070    0.17200    1.000
    C141     C        0.36780    0.08290    0.31420    1.000
    H93      H        0.37530    0.14200    0.30860    1.000
    C142     C        0.89370    0.12500    0.18460    1.000
    H94      H        0.90180    0.08900    0.21010    1.000
    C143     C        0.06810    0.01440    0.09750    1.000
    H95      H        0.08160    0.98850    0.12420    1.000
    C144     C        0.03650    0.06970    0.09910    1.000
    H96      H        0.02860    0.08140    0.12610    1.000
    N48      N        0.97728    0.23080    0.02927    1.000
    I28      I        0.11749    0.76645    0.08493    1.000
    I29      I        0.02494    0.64936    0.63139    1.000
    I30      I        0.73740    0.26685    0.80257    1.000
    I31      I        0.11898    0.73440    0.56097    1.000
    I32      I        0.63240    0.32393    0.70022    1.000
    I33      I        0.35427    0.58575    0.00872    1.000
    I34      I        0.39393    0.73323    0.89543    1.000
    Zn13     Zn       0.08146    0.61900    0.59461    1.000
    Zn14     Zn       0.67500    0.35313    0.77570    1.000
    Zn15     Zn       0.37440    0.59017    0.93508    1.000
    N49      N        0.18595    0.98930    0.77901    1.000
    N50      N        0.56799    0.98460    0.04999    1.000
    N51      N        0.11988    0.54910    0.64270    1.000
    N52      N        0.18081    0.31560    0.74955    1.000
    N53      N        0.33157    0.52610    0.89080    1.000
    N54      N        0.64139    0.33800    0.82240    1.000
    N55      N        0.21968    0.44300    0.77152    1.000
    N56      N        0.57484    0.22310    0.93853    1.000
    N57      N        0.23474    0.30480    0.80895    1.000
    N58      N        0.41990    0.50350    0.93840    1.000
    N59      N        0.53766    0.34980    0.91024    1.000
    C145     C        0.11000    0.46770    0.65320    1.000
    H97      H        0.08630    0.44330    0.63750    1.000
    C146     C        0.16560    0.45350    0.71010    1.000
    C147     C        0.55703    0.13300    0.99570    1.000
    C148     C        0.20495    0.27030    0.78040    1.000
    C149     C        0.27245    0.43800    0.83460    1.000
    C150     C        0.51672    0.33460    0.94070    1.000
    C151     C        0.53055    0.11180    0.02160    1.000
    H98      H        0.50860    0.14850    0.02110    1.000
    C152     C        0.21670    0.02480    0.80570    1.000
    H99      H        0.23460    0.98620    0.82380    1.000
    C153     C        0.16120    0.04380    0.75360    1.000
    H100     H        0.13900    0.01890    0.73490    1.000
    C154     C        0.55143    0.21320    0.96700    1.000
    C155     C        0.65300    0.28860    0.85860    1.000
    H101     H        0.67840    0.26450    0.86430    1.000
    C156     C        0.24063    0.39170    0.80320    1.000
    C157     C        0.28170    0.52480    0.82670    1.000
    H102     H        0.26780    0.55540    0.80150    1.000
    C158     C        0.15210    0.58540    0.66620    1.000
    H103     H        0.15910    0.64420    0.65950    1.000
    C159     C        0.59279    0.30960    0.88050    1.000
    C160     C        0.19021    0.40140    0.74620    1.000
    C161     C        0.48290    0.39320    0.94040    1.000
    C162     C        0.53660    0.03690    0.04770    1.000
    H104     H        0.51810    0.02160    0.06480    1.000
    C163     C        0.43670    0.46330    0.97510    1.000
    H105     H        0.42700    0.47330    0.00110    1.000
    C164     C        0.17550    0.53940    0.70030    1.000
    H106     H        0.19820    0.56660    0.71680    1.000
    C165     C        0.56730    0.29270    0.91160    1.000
    C166     C        0.19840    0.17230    0.78110    1.000
    C167     C        0.58880    0.07740    0.99770    1.000
    H107     H        0.60730    0.08940    0.98010    1.000
    C168     C        0.59290    0.00680    0.02460    1.000
    H108     H        0.61500    0.97000    0.02590    1.000
    C169     C        0.58130    0.36300    0.84370    1.000
    H109     H        0.55660    0.39090    0.83810    1.000
    C170     C        0.29390    0.39420    0.87030    1.000
    H110     H        0.28900    0.33360    0.87620    1.000
    C171     C        0.31100    0.56740    0.85530    1.000
    H111     H        0.31690    0.62770    0.84980    1.000
    C172     C        0.16630    0.13510    0.75350    1.000
    H112     H        0.14820    0.17210    0.73470    1.000
    C173     C        0.46820    0.40670    0.97710    1.000
    H113     H        0.47940    0.37750    0.00390    1.000
    C174     C        0.32320    0.44220    0.89750    1.000
    H114     H        0.33800    0.41270    0.92240    1.000
    C175     C        0.62970    0.27140    0.88770    1.000
    H115     H        0.63840    0.23390    0.91240    1.000
    C176     C        0.22350    0.11600    0.80800    1.000
    H116     H        0.24540    0.13930    0.82800    1.000
    C177     C        0.13220    0.41710    0.68580    1.000
    H117     H        0.12470    0.35800    0.69140    1.000
    C178     C        0.60630    0.37500    0.81540    1.000
    H118     H        0.59820    0.41100    0.78990    1.000
    C179     C        0.43190    0.48560    0.90250    1.000
    H119     H        0.41840    0.51150    0.87580    1.000
    C180     C        0.46350    0.43030    0.90090    1.000
    H120     H        0.47140    0.41860    0.87390    1.000
    N60      N        0.52272    0.26920    0.97073    1.000
    I35      I        0.38251    0.73355    0.91507    1.000
    I36      I        0.52494    0.14936    0.63139    1.000
    I37      I        0.23740    0.76685    0.80257    1.000
    I38      I        0.61898    0.23440    0.56097    1.000
    I39      I        0.13240    0.82393    0.70022    1.000
    I40      I        0.85427    0.08575    0.00872    1.000
    I41      I        0.89393    0.23323    0.89543    1.000
    Zn16     Zn       0.58146    0.11900    0.59461    1.000
    Zn17     Zn       0.17500    0.85313    0.77570    1.000
    Zn18     Zn       0.87440    0.09017    0.93508    1.000
    N61      N        0.68595    0.48930    0.77901    1.000
    N62      N        0.06799    0.48460    0.04999    1.000
    N63      N        0.61988    0.04910    0.64270    1.000
    N64      N        0.68081    0.81560    0.74955    1.000
    N65      N        0.83157    0.02610    0.89080    1.000
    N66      N        0.14139    0.83800    0.82240    1.000
    N67      N        0.71968    0.94300    0.77152    1.000
    N68      N        0.07484    0.72310    0.93853    1.000
    N69      N        0.73474    0.80480    0.80895    1.000
    N70      N        0.91990    0.00350    0.93840    1.000
    N71      N        0.03766    0.84980    0.91024    1.000
    C181     C        0.61000    0.96770    0.65320    1.000
    H121     H        0.58630    0.94330    0.63750    1.000
    C182     C        0.66560    0.95350    0.71010    1.000
    C183     C        0.05703    0.63300    0.99570    1.000
    C184     C        0.70495    0.77030    0.78040    1.000
    C185     C        0.77245    0.93800    0.83460    1.000
    C186     C        0.01672    0.83460    0.94070    1.000
    C187     C        0.03055    0.61180    0.02160    1.000
    H122     H        0.00860    0.64850    0.02110    1.000
    C188     C        0.71670    0.52480    0.80570    1.000
    H123     H        0.73460    0.48620    0.82380    1.000
    C189     C        0.66120    0.54380    0.75360    1.000
    H124     H        0.63900    0.51890    0.73490    1.000
    C190     C        0.05143    0.71320    0.96700    1.000
    C191     C        0.15300    0.78860    0.85860    1.000
    H125     H        0.17840    0.76450    0.86430    1.000
    C192     C        0.74063    0.89170    0.80320    1.000
    C193     C        0.78170    0.02480    0.82670    1.000
    H126     H        0.76780    0.05540    0.80150    1.000
    C194     C        0.65210    0.08540    0.66620    1.000
    H127     H        0.65910    0.14420    0.65950    1.000
    C195     C        0.09279    0.80960    0.88050    1.000
    C196     C        0.69021    0.90140    0.74620    1.000
    C197     C        0.98290    0.89320    0.94040    1.000
    C198     C        0.03660    0.53690    0.04770    1.000
    H128     H        0.01810    0.52160    0.06480    1.000
    C199     C        0.93670    0.96330    0.97510    1.000
    H129     H        0.92700    0.97330    0.00110    1.000
    C200     C        0.67550    0.03940    0.70030    1.000
    H130     H        0.69820    0.06660    0.71680    1.000
    C201     C        0.06730    0.79270    0.91160    1.000
    C202     C        0.69840    0.67230    0.78110    1.000
    C203     C        0.08880    0.57740    0.99770    1.000
    H131     H        0.10730    0.58940    0.98010    1.000
    C204     C        0.09290    0.50680    0.02460    1.000
    H132     H        0.11500    0.47000    0.02590    1.000
    C205     C        0.08130    0.86300    0.84370    1.000
    H133     H        0.05660    0.89090    0.83810    1.000
    C206     C        0.79390    0.89420    0.87030    1.000
    H134     H        0.78900    0.83360    0.87620    1.000
    C207     C        0.81100    0.06740    0.85530    1.000
    H135     H        0.81690    0.12770    0.84980    1.000
    C208     C        0.66630    0.63510    0.75350    1.000
    H136     H        0.64820    0.67210    0.73470    1.000
    C209     C        0.96820    0.90670    0.97710    1.000
    H137     H        0.97940    0.87750    0.00390    1.000
    C210     C        0.82320    0.94220    0.89750    1.000
    H138     H        0.83800    0.91270    0.92240    1.000
    C211     C        0.12970    0.77140    0.88770    1.000
    H139     H        0.13840    0.73390    0.91240    1.000
    C212     C        0.72350    0.61600    0.80800    1.000
    H140     H        0.74540    0.63930    0.82800    1.000
    C213     C        0.63220    0.91710    0.68580    1.000
    H141     H        0.62470    0.85800    0.69140    1.000
    C214     C        0.10630    0.87500    0.81540    1.000
    H142     H        0.09820    0.91100    0.78990    1.000
    C215     C        0.93190    0.98560    0.90250    1.000
    H143     H        0.91840    0.01150    0.87580    1.000
    C216     C        0.96350    0.93030    0.90090    1.000
    H144     H        0.97140    0.91860    0.87390    1.000
    N72      N        0.02272    0.76920    0.97073    1.000
    I42      I        0.88251    0.23355    0.91507    1.000
    I43      I        0.02494    0.35064    0.13139    1.000
    I44      I        0.73740    0.73315    0.30257    1.000
    I45      I        0.11898    0.26560    0.06097    1.000
    I46      I        0.63240    0.67607    0.20022    1.000
    I47      I        0.35427    0.41425    0.50872    1.000
    I48      I        0.39393    0.26677    0.39543    1.000
    Zn19     Zn       0.08146    0.38100    0.09461    1.000
    Zn20     Zn       0.67500    0.64687    0.27570    1.000
    Zn21     Zn       0.37440    0.40983    0.43508    1.000
    N73      N        0.18595    0.01070    0.27901    1.000
    N74      N        0.56799    0.01540    0.54999    1.000
    N75      N        0.11988    0.45090    0.14270    1.000
    N76      N        0.18081    0.68440    0.24955    1.000
    N77      N        0.33157    0.47390    0.39080    1.000
    N78      N        0.64139    0.66200    0.32240    1.000
    N79      N        0.21968    0.55700    0.27152    1.000
    N80      N        0.57484    0.77690    0.43853    1.000
    N81      N        0.23474    0.69520    0.30895    1.000
    N82      N        0.41990    0.49650    0.43840    1.000
    N83      N        0.53766    0.65020    0.41024    1.000
    C217     C        0.11000    0.53230    0.15320    1.000
    H145     H        0.08630    0.55670    0.13750    1.000
    C218     C        0.16560    0.54650    0.21010    1.000
    C219     C        0.55703    0.86700    0.49570    1.000
    C220     C        0.20495    0.72970    0.28040    1.000
    C221     C        0.27245    0.56200    0.33460    1.000
    C222     C        0.51672    0.66540    0.44070    1.000
    C223     C        0.53055    0.88820    0.52160    1.000
    H146     H        0.50860    0.85150    0.52110    1.000
    C224     C        0.21670    0.97520    0.30570    1.000
    H147     H        0.23460    0.01380    0.32380    1.000
    C225     C        0.16120    0.95620    0.25360    1.000
    H148     H        0.13900    0.98110    0.23490    1.000
    C226     C        0.55143    0.78680    0.46700    1.000
    C227     C        0.65300    0.71140    0.35860    1.000
    H149     H        0.67840    0.73550    0.36430    1.000
    C228     C        0.24063    0.60830    0.30320    1.000
    C229     C        0.28170    0.47520    0.32670    1.000
    H150     H        0.26780    0.44460    0.30150    1.000
    C230     C        0.15210    0.41460    0.16620    1.000
    H151     H        0.15910    0.35580    0.15950    1.000
    C231     C        0.59279    0.69040    0.38050    1.000
    C232     C        0.19021    0.59860    0.24620    1.000
    C233     C        0.48290    0.60680    0.44040    1.000
    C234     C        0.53660    0.96310    0.54770    1.000
    H152     H        0.51810    0.97840    0.56480    1.000
    C235     C        0.43670    0.53670    0.47510    1.000
    H153     H        0.42700    0.52670    0.50110    1.000
    C236     C        0.17550    0.46060    0.20030    1.000
    H154     H        0.19820    0.43340    0.21680    1.000
    C237     C        0.56730    0.70730    0.41160    1.000
    C238     C        0.19840    0.82770    0.28110    1.000
    C239     C        0.58880    0.92260    0.49770    1.000
    H155     H        0.60730    0.91060    0.48010    1.000
    C240     C        0.59290    0.99320    0.52460    1.000
    H156     H        0.61500    0.03000    0.52590    1.000
    C241     C        0.58130    0.63700    0.34370    1.000
    H157     H        0.55660    0.60910    0.33810    1.000
    C242     C        0.29390    0.60580    0.37030    1.000
    H158     H        0.28900    0.66640    0.37620    1.000
    C243     C        0.31100    0.43260    0.35530    1.000
    H159     H        0.31690    0.37230    0.34980    1.000
    C244     C        0.16630    0.86490    0.25350    1.000
    H160     H        0.14820    0.82790    0.23470    1.000
    C245     C        0.46820    0.59330    0.47710    1.000
    H161     H        0.47940    0.62250    0.50390    1.000
    C246     C        0.32320    0.55780    0.39750    1.000
    H162     H        0.33800    0.58730    0.42240    1.000
    C247     C        0.62970    0.72860    0.38770    1.000
    H163     H        0.63840    0.76610    0.41240    1.000
    C248     C        0.22350    0.88400    0.30800    1.000
    H164     H        0.24540    0.86070    0.32800    1.000
    C249     C        0.13220    0.58290    0.18580    1.000
    H165     H        0.12470    0.64200    0.19140    1.000
    C250     C        0.60630    0.62500    0.31540    1.000
    H166     H        0.59820    0.58900    0.28990    1.000
    C251     C        0.43190    0.51440    0.40250    1.000
    H167     H        0.41840    0.48850    0.37580    1.000
    C252     C        0.46350    0.56970    0.40090    1.000
    H168     H        0.47140    0.58140    0.37390    1.000
    N84      N        0.52272    0.73080    0.47073    1.000
    I49      I        0.38251    0.26645    0.41507    1.000
    I50      I        0.52494    0.85064    0.13139    1.000
    I51      I        0.23740    0.23315    0.30257    1.000
    I52      I        0.61898    0.76560    0.06097    1.000
    I53      I        0.13240    0.17607    0.20022    1.000
    I54      I        0.85427    0.91425    0.50872    1.000
    I55      I        0.89393    0.76677    0.39543    1.000
    Zn22     Zn       0.58146    0.88100    0.09461    1.000
    Zn23     Zn       0.17500    0.14687    0.27570    1.000
    Zn24     Zn       0.87440    0.90983    0.43508    1.000
    N85      N        0.68595    0.51070    0.27901    1.000
    N86      N        0.06799    0.51540    0.54999    1.000
    N87      N        0.61988    0.95090    0.14270    1.000
    N88      N        0.68081    0.18440    0.24955    1.000
    N89      N        0.83157    0.97390    0.39080    1.000
    N90      N        0.14139    0.16200    0.32240    1.000
    N91      N        0.71968    0.05700    0.27152    1.000
    N92      N        0.07484    0.27690    0.43853    1.000
    N93      N        0.73474    0.19520    0.30895    1.000
    N94      N        0.91990    0.99650    0.43840    1.000
    N95      N        0.03766    0.15020    0.41024    1.000
    C253     C        0.61000    0.03230    0.15320    1.000
    H169     H        0.58630    0.05670    0.13750    1.000
    C254     C        0.66560    0.04650    0.21010    1.000
    C255     C        0.05703    0.36700    0.49570    1.000
    C256     C        0.70495    0.22970    0.28040    1.000
    C257     C        0.77245    0.06200    0.33460    1.000
    C258     C        0.01672    0.16540    0.44070    1.000
    C259     C        0.03055    0.38820    0.52160    1.000
    H170     H        0.00860    0.35150    0.52110    1.000
    C260     C        0.71670    0.47520    0.30570    1.000
    H171     H        0.73460    0.51380    0.32380    1.000
    C261     C        0.66120    0.45620    0.25360    1.000
    H172     H        0.63900    0.48110    0.23490    1.000
    C262     C        0.05143    0.28680    0.46700    1.000
    C263     C        0.15300    0.21140    0.35860    1.000
    H173     H        0.17840    0.23550    0.36430    1.000
    C264     C        0.74063    0.10830    0.30320    1.000
    C265     C        0.78170    0.97520    0.32670    1.000
    H174     H        0.76780    0.94460    0.30150    1.000
    C266     C        0.65210    0.91460    0.16620    1.000
    H175     H        0.65910    0.85580    0.15950    1.000
    C267     C        0.09279    0.19040    0.38050    1.000
    C268     C        0.69021    0.09860    0.24620    1.000
    C269     C        0.98290    0.10680    0.44040    1.000
    C270     C        0.03660    0.46310    0.54770    1.000
    H176     H        0.01810    0.47840    0.56480    1.000
    C271     C        0.93670    0.03670    0.47510    1.000
    H177     H        0.92700    0.02670    0.50110    1.000
    C272     C        0.67550    0.96060    0.20030    1.000
    H178     H        0.69820    0.93340    0.21680    1.000
    C273     C        0.06730    0.20730    0.41160    1.000
    C274     C        0.69840    0.32770    0.28110    1.000
    C275     C        0.08880    0.42260    0.49770    1.000
    H179     H        0.10730    0.41060    0.48010    1.000
    C276     C        0.09290    0.49320    0.52460    1.000
    H180     H        0.11500    0.53000    0.52590    1.000
    C277     C        0.08130    0.13700    0.34370    1.000
    H181     H        0.05660    0.10910    0.33810    1.000
    C278     C        0.79390    0.10580    0.37030    1.000
    H182     H        0.78900    0.16640    0.37620    1.000
    C279     C        0.81100    0.93260    0.35530    1.000
    H183     H        0.81690    0.87230    0.34980    1.000
    C280     C        0.66630    0.36490    0.25350    1.000
    H184     H        0.64820    0.32790    0.23470    1.000
    C281     C        0.96820    0.09330    0.47710    1.000
    H185     H        0.97940    0.12250    0.50390    1.000
    C282     C        0.82320    0.05780    0.39750    1.000
    H186     H        0.83800    0.08730    0.42240    1.000
    C283     C        0.12970    0.22860    0.38770    1.000
    H187     H        0.13840    0.26610    0.41240    1.000
    C284     C        0.72350    0.38400    0.30800    1.000
    H188     H        0.74540    0.36070    0.32800    1.000
    C285     C        0.63220    0.08290    0.18580    1.000
    H189     H        0.62470    0.14200    0.19140    1.000
    C286     C        0.10630    0.12500    0.31540    1.000
    H190     H        0.09820    0.08900    0.28990    1.000
    C287     C        0.93190    0.01440    0.40250    1.000
    H191     H        0.91840    0.98850    0.37580    1.000
    C288     C        0.96350    0.06970    0.40090    1.000
    H192     H        0.97140    0.08140    0.37390    1.000
    N96      N        0.02272    0.23080    0.47073    1.000
    I56      I        0.88251    0.76645    0.41507    1.000
