# CIF file generated by openbabel 3.1.0, see https://openbabel.org
data_I
_chemical_name_common 'image0'
_cell_length_a 23.432
_cell_length_b 9.5422
_cell_length_c 18.9958
_cell_angle_alpha 90
_cell_angle_beta 125.964
_cell_angle_gamma 90
_space_group_name_H-M_alt 'P 1'
_space_group_name_Hall 'P 1'
loop_
    _symmetry_equiv_pos_as_xyz
    x,y,z
loop_
    _atom_site_label
    _atom_site_type_symbol
    _atom_site_fract_x
    _atom_site_fract_y
    _atom_site_fract_z
    _atom_site_occupancy
    O1       O        0.07198    0.14410    0.83648    1.000
    O2       O        0.13060    0.94630    0.89567    1.000
    O3       O        0.03949    0.05460    0.18887    1.000
    O4       O        0.03398    0.28560    0.19674    1.000
    C1       C        0.12665    0.07470    0.89212    1.000
    C2       C        0.19129    0.16200    0.95296    1.000
    C3       C        0.23597    0.18120    0.92862    1.000
    H1       H        0.22610    0.13390    0.87980    1.000
    C4       C        0.20485    0.23200    0.02628    1.000
    C5       C        0.16072    0.21760    0.05839    1.000
    C6       C        0.14871    0.33350    0.09254    1.000
    H2       H        0.16580    0.42080    0.09130    1.000
    C7       C        0.11184    0.32070    0.12817    1.000
    H3       H        0.10400    0.39970    0.15010    1.000
    C8       C        0.08644    0.19210    0.13177    1.000
    C9       C        0.04966    0.17870    0.17551    1.000
    C10      C        0.09681    0.07740    0.09605    1.000
    H4       H        0.07890    0.99060    0.09640    1.000
    C11      C        0.13336    0.08920    0.05980    1.000
    H5       H        0.13970    0.01060    0.03620    1.000
    O5       O        0.57198    0.64410    0.83648    1.000
    O6       O        0.63060    0.44630    0.89567    1.000
    O7       O        0.53949    0.55460    0.18887    1.000
    O8       O        0.53398    0.78560    0.19674    1.000
    C12      C        0.62665    0.57470    0.89212    1.000
    C13      C        0.69129    0.66200    0.95296    1.000
    C14      C        0.73597    0.68120    0.92862    1.000
    H6       H        0.72610    0.63390    0.87980    1.000
    C15      C        0.70485    0.73200    0.02628    1.000
    C16      C        0.66072    0.71760    0.05839    1.000
    C17      C        0.64871    0.83350    0.09254    1.000
    H7       H        0.66580    0.92080    0.09130    1.000
    C18      C        0.61184    0.82070    0.12817    1.000
    H8       H        0.60400    0.89970    0.15010    1.000
    C19      C        0.58644    0.69210    0.13177    1.000
    C20      C        0.54966    0.67870    0.17551    1.000
    C21      C        0.59681    0.57740    0.09605    1.000
    H9       H        0.57890    0.49060    0.09640    1.000
    C22      C        0.63336    0.58920    0.05980    1.000
    H10      H        0.63970    0.51060    0.03620    1.000
    O9       O        0.92802    0.14410    0.66352    1.000
    O10      O        0.86940    0.94630    0.60433    1.000
    O11      O        0.96051    0.05460    0.31113    1.000
    O12      O        0.96602    0.28560    0.30326    1.000
    C23      C        0.87335    0.07470    0.60788    1.000
    C24      C        0.80871    0.16200    0.54704    1.000
    C25      C        0.76403    0.18120    0.57138    1.000
    H11      H        0.77390    0.13390    0.62020    1.000
    C26      C        0.79515    0.23200    0.47372    1.000
    C27      C        0.83928    0.21760    0.44161    1.000
    C28      C        0.85129    0.33350    0.40746    1.000
    H12      H        0.83420    0.42080    0.40870    1.000
    C29      C        0.88816    0.32070    0.37183    1.000
    H13      H        0.89600    0.39970    0.34990    1.000
    C30      C        0.91356    0.19210    0.36823    1.000
    C31      C        0.95034    0.17870    0.32449    1.000
    C32      C        0.90319    0.07740    0.40395    1.000
    H14      H        0.92110    0.99060    0.40360    1.000
    C33      C        0.86664    0.08920    0.44020    1.000
    H15      H        0.86030    0.01060    0.46380    1.000
    O13      O        0.42802    0.64410    0.66352    1.000
    O14      O        0.36940    0.44630    0.60433    1.000
    O15      O        0.46051    0.55460    0.31113    1.000
    O16      O        0.46602    0.78560    0.30326    1.000
    C34      C        0.37335    0.57470    0.60788    1.000
    C35      C        0.30871    0.66200    0.54704    1.000
    C36      C        0.26403    0.68120    0.57138    1.000
    H16      H        0.27390    0.63390    0.62020    1.000
    C37      C        0.29515    0.73200    0.47372    1.000
    C38      C        0.33928    0.71760    0.44161    1.000
    C39      C        0.35129    0.83350    0.40746    1.000
    H17      H        0.33420    0.92080    0.40870    1.000
    C40      C        0.38816    0.82070    0.37183    1.000
    H18      H        0.39600    0.89970    0.34990    1.000
    C41      C        0.41356    0.69210    0.36823    1.000
    C42      C        0.45034    0.67870    0.32449    1.000
    C43      C        0.40319    0.57740    0.40395    1.000
    H19      H        0.42110    0.49060    0.40360    1.000
    C44      C        0.36664    0.58920    0.44020    1.000
    H20      H        0.36030    0.51060    0.46380    1.000
    O17      O        0.92802    0.85590    0.16352    1.000
    O18      O        0.86940    0.05370    0.10433    1.000
    O19      O        0.96051    0.94540    0.81113    1.000
    O20      O        0.96602    0.71440    0.80326    1.000
    C45      C        0.87335    0.92530    0.10788    1.000
    C46      C        0.80871    0.83800    0.04704    1.000
    C47      C        0.76403    0.81880    0.07138    1.000
    H21      H        0.77390    0.86610    0.12020    1.000
    C48      C        0.79515    0.76800    0.97372    1.000
    C49      C        0.83928    0.78240    0.94161    1.000
    C50      C        0.85129    0.66650    0.90746    1.000
    H22      H        0.83420    0.57920    0.90870    1.000
    C51      C        0.88816    0.67930    0.87183    1.000
    H23      H        0.89600    0.60030    0.84990    1.000
    C52      C        0.91356    0.80790    0.86823    1.000
    C53      C        0.95034    0.82130    0.82449    1.000
    C54      C        0.90319    0.92260    0.90395    1.000
    H24      H        0.92110    0.00940    0.90360    1.000
    C55      C        0.86664    0.91080    0.94020    1.000
    H25      H        0.86030    0.98940    0.96380    1.000
    O21      O        0.42802    0.35590    0.16352    1.000
    O22      O        0.36940    0.55370    0.10433    1.000
    O23      O        0.46051    0.44540    0.81113    1.000
    O24      O        0.46602    0.21440    0.80326    1.000
    C56      C        0.37335    0.42530    0.10788    1.000
    C57      C        0.30871    0.33800    0.04704    1.000
    C58      C        0.26403    0.31880    0.07138    1.000
    H26      H        0.27390    0.36610    0.12020    1.000
    C59      C        0.29515    0.26800    0.97372    1.000
    C60      C        0.33928    0.28240    0.94161    1.000
    C61      C        0.35129    0.16650    0.90746    1.000
    H27      H        0.33420    0.07920    0.90870    1.000
    C62      C        0.38816    0.17930    0.87183    1.000
    H28      H        0.39600    0.10030    0.84990    1.000
    C63      C        0.41356    0.30790    0.86823    1.000
    C64      C        0.45034    0.32130    0.82449    1.000
    C65      C        0.40319    0.42260    0.90395    1.000
    H29      H        0.42110    0.50940    0.90360    1.000
    C66      C        0.36664    0.41080    0.94020    1.000
    H30      H        0.36030    0.48940    0.96380    1.000
    O25      O        0.07198    0.85590    0.33648    1.000
    O26      O        0.13060    0.05370    0.39567    1.000
    O27      O        0.03949    0.94540    0.68887    1.000
    O28      O        0.03398    0.71440    0.69674    1.000
    C67      C        0.12665    0.92530    0.39212    1.000
    C68      C        0.19129    0.83800    0.45296    1.000
    C69      C        0.23597    0.81880    0.42862    1.000
    H31      H        0.22610    0.86610    0.37980    1.000
    C70      C        0.20485    0.76800    0.52628    1.000
    C71      C        0.16072    0.78240    0.55839    1.000
    C72      C        0.14871    0.66650    0.59254    1.000
    H32      H        0.16580    0.57920    0.59130    1.000
    C73      C        0.11184    0.67930    0.62817    1.000
    H33      H        0.10400    0.60030    0.65010    1.000
    C74      C        0.08644    0.80790    0.63177    1.000
    C75      C        0.04966    0.82130    0.67551    1.000
    C76      C        0.09681    0.92260    0.59605    1.000
    H34      H        0.07890    0.00940    0.59640    1.000
    C77      C        0.13336    0.91080    0.55980    1.000
    H35      H        0.13970    0.98940    0.53620    1.000
    O29      O        0.57198    0.35590    0.33648    1.000
    O30      O        0.63060    0.55370    0.39567    1.000
    O31      O        0.53949    0.44540    0.68887    1.000
    O32      O        0.53398    0.21440    0.69674    1.000
    C78      C        0.62665    0.42530    0.39212    1.000
    C79      C        0.69129    0.33800    0.45296    1.000
    C80      C        0.73597    0.31880    0.42862    1.000
    H36      H        0.72610    0.36610    0.37980    1.000
    C81      C        0.70485    0.26800    0.52628    1.000
    C82      C        0.66072    0.28240    0.55839    1.000
    C83      C        0.64871    0.16650    0.59254    1.000
    H37      H        0.66580    0.07920    0.59130    1.000
    C84      C        0.61184    0.17930    0.62817    1.000
    H38      H        0.60400    0.10030    0.65010    1.000
    C85      C        0.58644    0.30790    0.63177    1.000
    C86      C        0.54966    0.32130    0.67551    1.000
    C87      C        0.59681    0.42260    0.59605    1.000
    H39      H        0.57890    0.50940    0.59640    1.000
    C88      C        0.63336    0.41080    0.55980    1.000
    H40      H        0.63970    0.48940    0.53620    1.000
    Zn1      Zn       0.00000    0.00620    0.75000    1.000
    Zn2      Zn       0.50000    0.50620    0.75000    1.000
    Zn3      Zn       0.00000    0.99380    0.25000    1.000
    Zn4      Zn       0.50000    0.49380    0.25000    1.000
