# CIF file generated by openbabel 3.1.0, see https://openbabel.org
data_I
_chemical_name_common 'image0'
_cell_length_a 16.317
_cell_length_b 13.02
_cell_length_c 13.591
_cell_angle_alpha 90
_cell_angle_beta 100.303
_cell_angle_gamma 90
_space_group_name_H-M_alt 'P 1'
_space_group_name_Hall 'P 1'
loop_
    _symmetry_equiv_pos_as_xyz
    x,y,z
loop_
    _atom_site_label
    _atom_site_type_symbol
    _atom_site_fract_x
    _atom_site_fract_y
    _atom_site_fract_z
    _atom_site_occupancy
    O1       O        0.05536    0.24280    0.66660    1.000
    O2       O        0.13960    0.20130    0.80890    1.000
    O3       O        0.36860    0.95640    0.81340    1.000
    O4       O        0.41503    0.92570    0.67030    1.000
    N1       N        0.21280    0.09410    0.40070    1.000
    H1       H        0.23200    0.04380    0.37050    1.000
    C1       C        0.11940    0.19670    0.71550    1.000
    C2       C        0.17280    0.13670    0.65890    1.000
    C3       C        0.16450    0.14430    0.55390    1.000
    H2       H        0.12260    0.18500    0.51820    1.000
    C4       C        0.21850    0.09130    0.50350    1.000
    C5       C        0.28240    0.03160    0.55850    1.000
    H3       H        0.31950    0.99710    0.52550    1.000
    C6       C        0.29080    0.02360    0.66300    1.000
    C7       C        0.23650    0.07560    0.71180    1.000
    H4       H        0.24210    0.07000    0.78100    1.000
    C8       C        0.36310    0.96360    0.72120    1.000
    C9       C        0.17560    0.18200    0.34310    1.000
    H5       H        0.20570    0.19360    0.28860    1.000
    H6       H        0.18380    0.24210    0.38590    1.000
    C10      C        0.08300    0.17360    0.29910    1.000
    C11      C        0.04210    0.08250    0.27390    1.000
    H7       H        0.07000    0.02050    0.28840    1.000
    C12      C        0.04100    0.26350    0.27410    1.000
    H8       H        0.06820    0.32580    0.28980    1.000
    O5       O        0.55536    0.74280    0.66660    1.000
    O6       O        0.63960    0.70130    0.80890    1.000
    O7       O        0.86860    0.45640    0.81340    1.000
    O8       O        0.91503    0.42570    0.67030    1.000
    N2       N        0.71280    0.59410    0.40070    1.000
    H9       H        0.73200    0.54380    0.37050    1.000
    C13      C        0.61940    0.69670    0.71550    1.000
    C14      C        0.67280    0.63670    0.65890    1.000
    C15      C        0.66450    0.64430    0.55390    1.000
    H10      H        0.62260    0.68500    0.51820    1.000
    C16      C        0.71850    0.59130    0.50350    1.000
    C17      C        0.78240    0.53160    0.55850    1.000
    H11      H        0.81950    0.49710    0.52550    1.000
    C18      C        0.79080    0.52360    0.66300    1.000
    C19      C        0.73650    0.57560    0.71180    1.000
    H12      H        0.74210    0.57000    0.78100    1.000
    C20      C        0.86310    0.46360    0.72120    1.000
    C21      C        0.67560    0.68200    0.34310    1.000
    H13      H        0.70570    0.69360    0.28860    1.000
    H14      H        0.68380    0.74210    0.38590    1.000
    C22      C        0.58300    0.67360    0.29910    1.000
    C23      C        0.54210    0.58250    0.27390    1.000
    H15      H        0.57000    0.52050    0.28840    1.000
    C24      C        0.54100    0.76350    0.27410    1.000
    H16      H        0.56820    0.82580    0.28980    1.000
    O9       O        0.94464    0.24280    0.83340    1.000
    O10      O        0.86040    0.20130    0.69110    1.000
    O11      O        0.63140    0.95640    0.68660    1.000
    O12      O        0.58497    0.92570    0.82970    1.000
    N3       N        0.78720    0.09410    0.09930    1.000
    H17      H        0.76800    0.04380    0.12950    1.000
    C25      C        0.88060    0.19670    0.78450    1.000
    C26      C        0.82720    0.13670    0.84110    1.000
    C27      C        0.83550    0.14430    0.94610    1.000
    H18      H        0.87740    0.18500    0.98180    1.000
    C28      C        0.78150    0.09130    0.99650    1.000
    C29      C        0.71760    0.03160    0.94150    1.000
    H19      H        0.68050    0.99710    0.97450    1.000
    C30      C        0.70920    0.02360    0.83700    1.000
    C31      C        0.76350    0.07560    0.78820    1.000
    H20      H        0.75790    0.07000    0.71900    1.000
    C32      C        0.63690    0.96360    0.77880    1.000
    C33      C        0.82440    0.18200    0.15690    1.000
    H21      H        0.79430    0.19360    0.21140    1.000
    H22      H        0.81620    0.24210    0.11410    1.000
    C34      C        0.91700    0.17360    0.20090    1.000
    C35      C        0.95790    0.08250    0.22610    1.000
    H23      H        0.93000    0.02050    0.21160    1.000
    C36      C        0.95900    0.26350    0.22590    1.000
    H24      H        0.93180    0.32580    0.21020    1.000
    O13      O        0.44464    0.74280    0.83340    1.000
    O14      O        0.36040    0.70130    0.69110    1.000
    O15      O        0.13140    0.45640    0.68660    1.000
    O16      O        0.08497    0.42570    0.82970    1.000
    N4       N        0.28720    0.59410    0.09930    1.000
    H25      H        0.26800    0.54380    0.12950    1.000
    C37      C        0.38060    0.69670    0.78450    1.000
    C38      C        0.32720    0.63670    0.84110    1.000
    C39      C        0.33550    0.64430    0.94610    1.000
    H26      H        0.37740    0.68500    0.98180    1.000
    C40      C        0.28150    0.59130    0.99650    1.000
    C41      C        0.21760    0.53160    0.94150    1.000
    H27      H        0.18050    0.49710    0.97450    1.000
    C42      C        0.20920    0.52360    0.83700    1.000
    C43      C        0.26350    0.57560    0.78820    1.000
    H28      H        0.25790    0.57000    0.71900    1.000
    C44      C        0.13690    0.46360    0.77880    1.000
    C45      C        0.32440    0.68200    0.15690    1.000
    H29      H        0.29430    0.69360    0.21140    1.000
    H30      H        0.31620    0.74210    0.11410    1.000
    C46      C        0.41700    0.67360    0.20090    1.000
    C47      C        0.45790    0.58250    0.22610    1.000
    H31      H        0.43000    0.52050    0.21160    1.000
    C48      C        0.45900    0.76350    0.22590    1.000
    H32      H        0.43180    0.82580    0.21020    1.000
    Zn1      Zn       0.00000    0.33665    0.75000    1.000
    Zn2      Zn       0.50000    0.83665    0.75000    1.000
    O17      O        0.94464    0.75720    0.33340    1.000
    O18      O        0.86040    0.79870    0.19110    1.000
    O19      O        0.63140    0.04360    0.18660    1.000
    O20      O        0.58497    0.07430    0.32970    1.000
    N5       N        0.78720    0.90590    0.59930    1.000
    H33      H        0.76800    0.95620    0.62950    1.000
    C49      C        0.88060    0.80330    0.28450    1.000
    C50      C        0.82720    0.86330    0.34110    1.000
    C51      C        0.83550    0.85570    0.44610    1.000
    H34      H        0.87740    0.81500    0.48180    1.000
    C52      C        0.78150    0.90870    0.49650    1.000
    C53      C        0.71760    0.96840    0.44150    1.000
    H35      H        0.68050    0.00290    0.47450    1.000
    C54      C        0.70920    0.97640    0.33700    1.000
    C55      C        0.76350    0.92440    0.28820    1.000
    H36      H        0.75790    0.93000    0.21900    1.000
    C56      C        0.63690    0.03640    0.27880    1.000
    C57      C        0.82440    0.81800    0.65690    1.000
    H37      H        0.79430    0.80640    0.71140    1.000
    H38      H        0.81620    0.75790    0.61410    1.000
    C58      C        0.91700    0.82640    0.70090    1.000
    C59      C        0.95790    0.91750    0.72610    1.000
    H39      H        0.93000    0.97950    0.71160    1.000
    C60      C        0.95900    0.73650    0.72590    1.000
    H40      H        0.93180    0.67420    0.71020    1.000
    O21      O        0.44464    0.25720    0.33340    1.000
    O22      O        0.36040    0.29870    0.19110    1.000
    O23      O        0.13140    0.54360    0.18660    1.000
    O24      O        0.08497    0.57430    0.32970    1.000
    N6       N        0.28720    0.40590    0.59930    1.000
    H41      H        0.26800    0.45620    0.62950    1.000
    C61      C        0.38060    0.30330    0.28450    1.000
    C62      C        0.32720    0.36330    0.34110    1.000
    C63      C        0.33550    0.35570    0.44610    1.000
    H42      H        0.37740    0.31500    0.48180    1.000
    C64      C        0.28150    0.40870    0.49650    1.000
    C65      C        0.21760    0.46840    0.44150    1.000
    H43      H        0.18050    0.50290    0.47450    1.000
    C66      C        0.20920    0.47640    0.33700    1.000
    C67      C        0.26350    0.42440    0.28820    1.000
    H44      H        0.25790    0.43000    0.21900    1.000
    C68      C        0.13690    0.53640    0.27880    1.000
    C69      C        0.32440    0.31800    0.65690    1.000
    H45      H        0.29430    0.30640    0.71140    1.000
    H46      H        0.31620    0.25790    0.61410    1.000
    C70      C        0.41700    0.32640    0.70090    1.000
    C71      C        0.45790    0.41750    0.72610    1.000
    H47      H        0.43000    0.47950    0.71160    1.000
    C72      C        0.45900    0.23650    0.72590    1.000
    H48      H        0.43180    0.17420    0.71020    1.000
    O25      O        0.05536    0.75720    0.16660    1.000
    O26      O        0.13960    0.79870    0.30890    1.000
    O27      O        0.36860    0.04360    0.31340    1.000
    O28      O        0.41503    0.07430    0.17030    1.000
    N7       N        0.21280    0.90590    0.90070    1.000
    H49      H        0.23200    0.95620    0.87050    1.000
    C73      C        0.11940    0.80330    0.21550    1.000
    C74      C        0.17280    0.86330    0.15890    1.000
    C75      C        0.16450    0.85570    0.05390    1.000
    H50      H        0.12260    0.81500    0.01820    1.000
    C76      C        0.21850    0.90870    0.00350    1.000
    C77      C        0.28240    0.96840    0.05850    1.000
    H51      H        0.31950    0.00290    0.02550    1.000
    C78      C        0.29080    0.97640    0.16300    1.000
    C79      C        0.23650    0.92440    0.21180    1.000
    H52      H        0.24210    0.93000    0.28100    1.000
    C80      C        0.36310    0.03640    0.22120    1.000
    C81      C        0.17560    0.81800    0.84310    1.000
    H53      H        0.20570    0.80640    0.78860    1.000
    H54      H        0.18380    0.75790    0.88590    1.000
    C82      C        0.08300    0.82640    0.79910    1.000
    C83      C        0.04210    0.91750    0.77390    1.000
    H55      H        0.07000    0.97950    0.78840    1.000
    C84      C        0.04100    0.73650    0.77410    1.000
    H56      H        0.06820    0.67420    0.78980    1.000
    O29      O        0.55536    0.25720    0.16660    1.000
    O30      O        0.63960    0.29870    0.30890    1.000
    O31      O        0.86860    0.54360    0.31340    1.000
    O32      O        0.91503    0.57430    0.17030    1.000
    N8       N        0.71280    0.40590    0.90070    1.000
    H57      H        0.73200    0.45620    0.87050    1.000
    C85      C        0.61940    0.30330    0.21550    1.000
    C86      C        0.67280    0.36330    0.15890    1.000
    C87      C        0.66450    0.35570    0.05390    1.000
    H58      H        0.62260    0.31500    0.01820    1.000
    C88      C        0.71850    0.40870    0.00350    1.000
    C89      C        0.78240    0.46840    0.05850    1.000
    H59      H        0.81950    0.50290    0.02550    1.000
    C90      C        0.79080    0.47640    0.16300    1.000
    C91      C        0.73650    0.42440    0.21180    1.000
    H60      H        0.74210    0.43000    0.28100    1.000
    C92      C        0.86310    0.53640    0.22120    1.000
    C93      C        0.67560    0.31800    0.84310    1.000
    H61      H        0.70570    0.30640    0.78860    1.000
    H62      H        0.68380    0.25790    0.88590    1.000
    C94      C        0.58300    0.32640    0.79910    1.000
    C95      C        0.54210    0.41750    0.77390    1.000
    H63      H        0.57000    0.47950    0.78840    1.000
    C96      C        0.54100    0.23650    0.77410    1.000
    H64      H        0.56820    0.17420    0.78980    1.000
    Zn3      Zn       0.00000    0.66335    0.25000    1.000
    Zn4      Zn       0.50000    0.16335    0.25000    1.000
