# CIF file generated by openbabel 3.1.0, see https://openbabel.org
data_I
_chemical_name_common 'image0'
_cell_length_a 26.0729
_cell_length_b 26.0729
_cell_length_c 26.0729
_cell_angle_alpha 90
_cell_angle_beta 90
_cell_angle_gamma 90
_space_group_name_H-M_alt 'P 1'
_space_group_name_Hall 'P 1'
loop_
    _symmetry_equiv_pos_as_xyz
    x,y,z
loop_
    _atom_site_label
    _atom_site_type_symbol
    _atom_site_fract_x
    _atom_site_fract_y
    _atom_site_fract_z
    _atom_site_occupancy
    Zr1      Zr       0.98470    0.40759    0.98687    1.000
    O1       O        0.93170    0.46440    0.94950    1.000
    C1       C        0.98600    0.31957    0.13527    1.000
    C2       C        0.99375    0.36352    0.10039    1.000
    O2       O        0.00641    0.40551    0.12166    1.000
    O3       O        0.98735    0.35497    0.05292    1.000
    C3       C        0.96350    0.13380    0.32180    1.000
    C4       C        0.96720    0.09846    0.36590    1.000
    O4       O        0.96810    0.12041    0.40977    1.000
    O5       O        0.96915    0.05116    0.35666    1.000
    C5       C        0.97310    0.24160    0.20330    1.000
    C6       C        0.96750    0.20150    0.24270    1.000
    C7       C        0.98760    0.22810    0.15050    1.000
    H1       H        0.99690    0.19510    0.14070    1.000
    C8       C        0.98590    0.26990    0.11640    1.000
    H2       H        0.98480    0.26420    0.08120    1.000
    C9       C        0.98500    0.32850    0.18950    1.000
    H3       H        0.99210    0.36100    0.20250    1.000
    C10      C        0.96730    0.14740    0.23160    1.000
    H4       H        0.96740    0.13570    0.19790    1.000
    C11      C        0.96710    0.11640    0.26820    1.000
    H5       H        0.96930    0.08150    0.26150    1.000
    C12      C        0.96460    0.18580    0.32860    1.000
    H6       H        0.96330    0.19890    0.36170    1.000
    N1       N        0.97370    0.28960    0.22140    1.000
    N2       N        0.96750    0.21750    0.29010    1.000
    Co1      Co       0.96813    0.29983    0.30084    1.000
    Cl1      Cl       0.01620    0.29490    0.38680    1.000
    Cl2      Cl       0.03020    0.37810    0.29220    1.000
    Co2      Co       0.00250    0.29575    0.29950    1.000
    C13      C        0.95790    0.23280    0.15160    1.000
    H7       H        0.94480    0.20130    0.14110    1.000
    C14      C        0.96360    0.27320    0.11790    1.000
    H8       H        0.95280    0.27000    0.08400    1.000
    C15      C        0.00300    0.32260    0.18470    1.000
    H9       H        0.02060    0.35190    0.19480    1.000
    C16      C        0.94570    0.15420    0.23500    1.000
    H10      H        0.93000    0.14660    0.20390    1.000
    C17      C        0.94720    0.11730    0.27450    1.000
    H11      H        0.93760    0.08340    0.26880    1.000
    C18      C        0.98140    0.18380    0.32930    1.000
    H12      H        0.99230    0.19300    0.36200    1.000
    N3       N        0.99550    0.28620    0.21860    1.000
    N4       N        0.98420    0.22150    0.29010    1.000
    O6       O        0.94860    0.47360    0.96210    1.000
    Cl3      Cl       0.04140    0.29030    0.35110    1.000
    Cl4      Cl       0.96240    0.38670    0.30090    1.000
    Zr2      Zr       0.51530    0.59241    0.48687    1.000
    O7       O        0.56830    0.53560    0.44950    1.000
    C19      C        0.51400    0.68043    0.63527    1.000
    C20      C        0.50625    0.63648    0.60039    1.000
    O8       O        0.49359    0.59449    0.62166    1.000
    O9       O        0.51265    0.64503    0.55292    1.000
    C21      C        0.53650    0.86620    0.82180    1.000
    C22      C        0.53280    0.90154    0.86590    1.000
    O10      O        0.53190    0.87959    0.90977    1.000
    O11      O        0.53085    0.94884    0.85666    1.000
    C23      C        0.52690    0.75840    0.70330    1.000
    C24      C        0.53250    0.79850    0.74270    1.000
    C25      C        0.51240    0.77190    0.65050    1.000
    H13      H        0.50310    0.80490    0.64070    1.000
    C26      C        0.51410    0.73010    0.61640    1.000
    H14      H        0.51520    0.73580    0.58120    1.000
    C27      C        0.51500    0.67150    0.68950    1.000
    H15      H        0.50790    0.63900    0.70250    1.000
    C28      C        0.53270    0.85260    0.73160    1.000
    H16      H        0.53260    0.86430    0.69790    1.000
    C29      C        0.53290    0.88360    0.76820    1.000
    H17      H        0.53070    0.91850    0.76150    1.000
    C30      C        0.53540    0.81420    0.82860    1.000
    H18      H        0.53670    0.80110    0.86170    1.000
    N5       N        0.52630    0.71040    0.72140    1.000
    N6       N        0.53250    0.78250    0.79010    1.000
    Co3      Co       0.53187    0.70017    0.80084    1.000
    Cl5      Cl       0.48380    0.70510    0.88680    1.000
    Cl6      Cl       0.46980    0.62190    0.79220    1.000
    Co4      Co       0.49750    0.70425    0.79950    1.000
    C31      C        0.54210    0.76720    0.65160    1.000
    H19      H        0.55520    0.79870    0.64110    1.000
    C32      C        0.53640    0.72680    0.61790    1.000
    H20      H        0.54720    0.73000    0.58400    1.000
    C33      C        0.49700    0.67740    0.68470    1.000
    H21      H        0.47940    0.64810    0.69480    1.000
    C34      C        0.55430    0.84580    0.73500    1.000
    H22      H        0.57000    0.85340    0.70390    1.000
    C35      C        0.55280    0.88270    0.77450    1.000
    H23      H        0.56240    0.91660    0.76880    1.000
    C36      C        0.51860    0.81620    0.82930    1.000
    H24      H        0.50770    0.80700    0.86200    1.000
    N7       N        0.50450    0.71380    0.71860    1.000
    N8       N        0.51580    0.77850    0.79010    1.000
    O12      O        0.55140    0.52640    0.46210    1.000
    Cl7      Cl       0.45860    0.70970    0.85110    1.000
    Cl8      Cl       0.53760    0.61330    0.80090    1.000
    Zr3      Zr       0.01530    0.90759    0.51313    1.000
    O13      O        0.06830    0.96440    0.55050    1.000
    C37      C        0.01400    0.81957    0.36473    1.000
    C38      C        0.00625    0.86352    0.39961    1.000
    O14      O        0.99359    0.90551    0.37834    1.000
    O15      O        0.01265    0.85497    0.44708    1.000
    C39      C        0.03650    0.63380    0.17820    1.000
    C40      C        0.03280    0.59846    0.13410    1.000
    O16      O        0.03190    0.62041    0.09023    1.000
    O17      O        0.03085    0.55116    0.14334    1.000
    C41      C        0.02690    0.74160    0.29670    1.000
    C42      C        0.03250    0.70150    0.25730    1.000
    C43      C        0.01240    0.72810    0.34950    1.000
    H25      H        0.00310    0.69510    0.35930    1.000
    C44      C        0.01410    0.76990    0.38360    1.000
    H26      H        0.01520    0.76420    0.41880    1.000
    C45      C        0.01500    0.82850    0.31050    1.000
    H27      H        0.00790    0.86100    0.29750    1.000
    C46      C        0.03270    0.64740    0.26840    1.000
    H28      H        0.03260    0.63570    0.30210    1.000
    C47      C        0.03290    0.61640    0.23180    1.000
    H29      H        0.03070    0.58150    0.23850    1.000
    C48      C        0.03540    0.68580    0.17140    1.000
    H30      H        0.03670    0.69890    0.13830    1.000
    N9       N        0.02630    0.78960    0.27860    1.000
    N10      N        0.03250    0.71750    0.20990    1.000
    Co5      Co       0.03187    0.79983    0.19916    1.000
    Cl9      Cl       0.98380    0.79490    0.11320    1.000
    Cl10     Cl       0.96980    0.87810    0.20780    1.000
    Co6      Co       0.99750    0.79575    0.20050    1.000
    C49      C        0.04210    0.73280    0.34840    1.000
    H31      H        0.05520    0.70130    0.35890    1.000
    C50      C        0.03640    0.77320    0.38210    1.000
    H32      H        0.04720    0.77000    0.41600    1.000
    C51      C        0.99700    0.82260    0.31530    1.000
    H33      H        0.97940    0.85190    0.30520    1.000
    C52      C        0.05430    0.65420    0.26500    1.000
    H34      H        0.07000    0.64660    0.29610    1.000
    C53      C        0.05280    0.61730    0.22550    1.000
    H35      H        0.06240    0.58340    0.23120    1.000
    C54      C        0.01860    0.68380    0.17070    1.000
    H36      H        0.00770    0.69300    0.13800    1.000
    N11      N        0.00450    0.78620    0.28140    1.000
    N12      N        0.01580    0.72150    0.20990    1.000
    O18      O        0.05140    0.97360    0.53790    1.000
    Cl11     Cl       0.95860    0.79030    0.14890    1.000
    Cl12     Cl       0.03760    0.88670    0.19910    1.000
    Zr4      Zr       0.48470    0.09241    0.01313    1.000
    O19      O        0.43170    0.03560    0.05050    1.000
    C55      C        0.48600    0.18043    0.86473    1.000
    C56      C        0.49375    0.13648    0.89961    1.000
    O20      O        0.50641    0.09449    0.87834    1.000
    O21      O        0.48735    0.14503    0.94708    1.000
    C57      C        0.46350    0.36620    0.67820    1.000
    C58      C        0.46720    0.40154    0.63410    1.000
    O22      O        0.46810    0.37959    0.59023    1.000
    O23      O        0.46915    0.44884    0.64334    1.000
    C59      C        0.47310    0.25840    0.79670    1.000
    C60      C        0.46750    0.29850    0.75730    1.000
    C61      C        0.48760    0.27190    0.84950    1.000
    H37      H        0.49690    0.30490    0.85930    1.000
    C62      C        0.48590    0.23010    0.88360    1.000
    H38      H        0.48480    0.23580    0.91880    1.000
    C63      C        0.48500    0.17150    0.81050    1.000
    H39      H        0.49210    0.13900    0.79750    1.000
    C64      C        0.46730    0.35260    0.76840    1.000
    H40      H        0.46740    0.36430    0.80210    1.000
    C65      C        0.46710    0.38360    0.73180    1.000
    H41      H        0.46930    0.41850    0.73850    1.000
    C66      C        0.46460    0.31420    0.67140    1.000
    H42      H        0.46330    0.30110    0.63830    1.000
    N13      N        0.47370    0.21040    0.77860    1.000
    N14      N        0.46750    0.28250    0.70990    1.000
    Co7      Co       0.46813    0.20017    0.69916    1.000
    Cl13     Cl       0.51620    0.20510    0.61320    1.000
    Cl14     Cl       0.53020    0.12190    0.70780    1.000
    Co8      Co       0.50250    0.20425    0.70050    1.000
    C67      C        0.45790    0.26720    0.84840    1.000
    H43      H        0.44480    0.29870    0.85890    1.000
    C68      C        0.46360    0.22680    0.88210    1.000
    H44      H        0.45280    0.23000    0.91600    1.000
    C69      C        0.50300    0.17740    0.81530    1.000
    H45      H        0.52060    0.14810    0.80520    1.000
    C70      C        0.44570    0.34580    0.76500    1.000
    H46      H        0.43000    0.35340    0.79610    1.000
    C71      C        0.44720    0.38270    0.72550    1.000
    H47      H        0.43760    0.41660    0.73120    1.000
    C72      C        0.48140    0.31620    0.67070    1.000
    H48      H        0.49230    0.30700    0.63800    1.000
    N15      N        0.49550    0.21380    0.78140    1.000
    N16      N        0.48420    0.27850    0.70990    1.000
    O24      O        0.44860    0.02640    0.03790    1.000
    Cl15     Cl       0.54140    0.20970    0.64890    1.000
    Cl16     Cl       0.46240    0.11330    0.69910    1.000
    Zr5      Zr       0.98687    0.98470    0.40759    1.000
    O25      O        0.94950    0.93170    0.46440    1.000
    C73      C        0.13527    0.98600    0.31957    1.000
    C74      C        0.10039    0.99375    0.36352    1.000
    O26      O        0.12166    0.00641    0.40551    1.000
    O27      O        0.05292    0.98735    0.35497    1.000
    C75      C        0.32180    0.96350    0.13380    1.000
    C76      C        0.36590    0.96720    0.09846    1.000
    O28      O        0.40977    0.96810    0.12041    1.000
    O29      O        0.35666    0.96915    0.05116    1.000
    C77      C        0.20330    0.97310    0.24160    1.000
    C78      C        0.24270    0.96750    0.20150    1.000
    C79      C        0.15050    0.98760    0.22810    1.000
    H49      H        0.14070    0.99690    0.19510    1.000
    C80      C        0.11640    0.98590    0.26990    1.000
    H50      H        0.08120    0.98480    0.26420    1.000
    C81      C        0.18950    0.98500    0.32850    1.000
    H51      H        0.20250    0.99210    0.36100    1.000
    C82      C        0.23160    0.96730    0.14740    1.000
    H52      H        0.19790    0.96740    0.13570    1.000
    C83      C        0.26820    0.96710    0.11640    1.000
    H53      H        0.26150    0.96930    0.08150    1.000
    C84      C        0.32860    0.96460    0.18580    1.000
    H54      H        0.36170    0.96330    0.19890    1.000
    N17      N        0.22140    0.97370    0.28960    1.000
    N18      N        0.29010    0.96750    0.21750    1.000
    Co9      Co       0.30084    0.96813    0.29983    1.000
    Cl17     Cl       0.38680    0.01620    0.29490    1.000
    Cl18     Cl       0.29220    0.03020    0.37810    1.000
    Co10     Co       0.29950    0.00250    0.29575    1.000
    C85      C        0.15160    0.95790    0.23280    1.000
    H55      H        0.14110    0.94480    0.20130    1.000
    C86      C        0.11790    0.96360    0.27320    1.000
    H56      H        0.08400    0.95280    0.27000    1.000
    C87      C        0.18470    0.00300    0.32260    1.000
    H57      H        0.19480    0.02060    0.35190    1.000
    C88      C        0.23500    0.94570    0.15420    1.000
    H58      H        0.20390    0.93000    0.14660    1.000
    C89      C        0.27450    0.94720    0.11730    1.000
    H59      H        0.26880    0.93760    0.08340    1.000
    C90      C        0.32930    0.98140    0.18380    1.000
    H60      H        0.36200    0.99230    0.19300    1.000
    N19      N        0.21860    0.99550    0.28620    1.000
    N20      N        0.29010    0.98420    0.22150    1.000
    O30      O        0.96210    0.94860    0.47360    1.000
    Cl19     Cl       0.35110    0.04140    0.29030    1.000
    Cl20     Cl       0.30090    0.96240    0.38670    1.000
    Zr6      Zr       0.48687    0.51530    0.59241    1.000
    O31      O        0.44950    0.56830    0.53560    1.000
    C91      C        0.63527    0.51400    0.68043    1.000
    C92      C        0.60039    0.50625    0.63648    1.000
    O32      O        0.62166    0.49359    0.59449    1.000
    O33      O        0.55292    0.51265    0.64503    1.000
    C93      C        0.82180    0.53650    0.86620    1.000
    C94      C        0.86590    0.53280    0.90154    1.000
    O34      O        0.90977    0.53190    0.87959    1.000
    O35      O        0.85666    0.53085    0.94884    1.000
    C95      C        0.70330    0.52690    0.75840    1.000
    C96      C        0.74270    0.53250    0.79850    1.000
    C97      C        0.65050    0.51240    0.77190    1.000
    H61      H        0.64070    0.50310    0.80490    1.000
    C98      C        0.61640    0.51410    0.73010    1.000
    H62      H        0.58120    0.51520    0.73580    1.000
    C99      C        0.68950    0.51500    0.67150    1.000
    H63      H        0.70250    0.50790    0.63900    1.000
    C100     C        0.73160    0.53270    0.85260    1.000
    H64      H        0.69790    0.53260    0.86430    1.000
    C101     C        0.76820    0.53290    0.88360    1.000
    H65      H        0.76150    0.53070    0.91850    1.000
    C102     C        0.82860    0.53540    0.81420    1.000
    H66      H        0.86170    0.53670    0.80110    1.000
    N21      N        0.72140    0.52630    0.71040    1.000
    N22      N        0.79010    0.53250    0.78250    1.000
    Co11     Co       0.80084    0.53187    0.70017    1.000
    Cl21     Cl       0.88680    0.48380    0.70510    1.000
    Cl22     Cl       0.79220    0.46980    0.62190    1.000
    Co12     Co       0.79950    0.49750    0.70425    1.000
    C103     C        0.65160    0.54210    0.76720    1.000
    H67      H        0.64110    0.55520    0.79870    1.000
    C104     C        0.61790    0.53640    0.72680    1.000
    H68      H        0.58400    0.54720    0.73000    1.000
    C105     C        0.68470    0.49700    0.67740    1.000
    H69      H        0.69480    0.47940    0.64810    1.000
    C106     C        0.73500    0.55430    0.84580    1.000
    H70      H        0.70390    0.57000    0.85340    1.000
    C107     C        0.77450    0.55280    0.88270    1.000
    H71      H        0.76880    0.56240    0.91660    1.000
    C108     C        0.82930    0.51860    0.81620    1.000
    H72      H        0.86200    0.50770    0.80700    1.000
    N23      N        0.71860    0.50450    0.71380    1.000
    N24      N        0.79010    0.51580    0.77850    1.000
    O36      O        0.46210    0.55140    0.52640    1.000
    Cl23     Cl       0.85110    0.45860    0.70970    1.000
    Cl24     Cl       0.80090    0.53760    0.61330    1.000
    Zr7      Zr       0.51313    0.01530    0.90759    1.000
    O37      O        0.55050    0.06830    0.96440    1.000
    C109     C        0.36473    0.01400    0.81957    1.000
    C110     C        0.39961    0.00625    0.86352    1.000
    O38      O        0.37834    0.99359    0.90551    1.000
    O39      O        0.44708    0.01265    0.85497    1.000
    C111     C        0.17820    0.03650    0.63380    1.000
    C112     C        0.13410    0.03280    0.59846    1.000
    O40      O        0.09023    0.03190    0.62041    1.000
    O41      O        0.14334    0.03085    0.55116    1.000
    C113     C        0.29670    0.02690    0.74160    1.000
    C114     C        0.25730    0.03250    0.70150    1.000
    C115     C        0.34950    0.01240    0.72810    1.000
    H73      H        0.35930    0.00310    0.69510    1.000
    C116     C        0.38360    0.01410    0.76990    1.000
    H74      H        0.41880    0.01520    0.76420    1.000
    C117     C        0.31050    0.01500    0.82850    1.000
    H75      H        0.29750    0.00790    0.86100    1.000
    C118     C        0.26840    0.03270    0.64740    1.000
    H76      H        0.30210    0.03260    0.63570    1.000
    C119     C        0.23180    0.03290    0.61640    1.000
    H77      H        0.23850    0.03070    0.58150    1.000
    C120     C        0.17140    0.03540    0.68580    1.000
    H78      H        0.13830    0.03670    0.69890    1.000
    N25      N        0.27860    0.02630    0.78960    1.000
    N26      N        0.20990    0.03250    0.71750    1.000
    Co13     Co       0.19916    0.03187    0.79983    1.000
    Cl25     Cl       0.11320    0.98380    0.79490    1.000
    Cl26     Cl       0.20780    0.96980    0.87810    1.000
    Co14     Co       0.20050    0.99750    0.79575    1.000
    C121     C        0.34840    0.04210    0.73280    1.000
    H79      H        0.35890    0.05520    0.70130    1.000
    C122     C        0.38210    0.03640    0.77320    1.000
    H80      H        0.41600    0.04720    0.77000    1.000
    C123     C        0.31530    0.99700    0.82260    1.000
    H81      H        0.30520    0.97940    0.85190    1.000
    C124     C        0.26500    0.05430    0.65420    1.000
    H82      H        0.29610    0.07000    0.64660    1.000
    C125     C        0.22550    0.05280    0.61730    1.000
    H83      H        0.23120    0.06240    0.58340    1.000
    C126     C        0.17070    0.01860    0.68380    1.000
    H84      H        0.13800    0.00770    0.69300    1.000
    N27      N        0.28140    0.00450    0.78620    1.000
    N28      N        0.20990    0.01580    0.72150    1.000
    O42      O        0.53790    0.05140    0.97360    1.000
    Cl27     Cl       0.14890    0.95860    0.79030    1.000
    Cl28     Cl       0.19910    0.03760    0.88670    1.000
    Zr8      Zr       0.01313    0.48470    0.09241    1.000
    O43      O        0.05050    0.43170    0.03560    1.000
    C127     C        0.86473    0.48600    0.18043    1.000
    C128     C        0.89961    0.49375    0.13648    1.000
    O44      O        0.87834    0.50641    0.09449    1.000
    O45      O        0.94708    0.48735    0.14503    1.000
    C129     C        0.67820    0.46350    0.36620    1.000
    C130     C        0.63410    0.46720    0.40154    1.000
    O46      O        0.59023    0.46810    0.37959    1.000
    O47      O        0.64334    0.46915    0.44884    1.000
    C131     C        0.79670    0.47310    0.25840    1.000
    C132     C        0.75730    0.46750    0.29850    1.000
    C133     C        0.84950    0.48760    0.27190    1.000
    H85      H        0.85930    0.49690    0.30490    1.000
    C134     C        0.88360    0.48590    0.23010    1.000
    H86      H        0.91880    0.48480    0.23580    1.000
    C135     C        0.81050    0.48500    0.17150    1.000
    H87      H        0.79750    0.49210    0.13900    1.000
    C136     C        0.76840    0.46730    0.35260    1.000
    H88      H        0.80210    0.46740    0.36430    1.000
    C137     C        0.73180    0.46710    0.38360    1.000
    H89      H        0.73850    0.46930    0.41850    1.000
    C138     C        0.67140    0.46460    0.31420    1.000
    H90      H        0.63830    0.46330    0.30110    1.000
    N29      N        0.77860    0.47370    0.21040    1.000
    N30      N        0.70990    0.46750    0.28250    1.000
    Co15     Co       0.69916    0.46813    0.20017    1.000
    Cl29     Cl       0.61320    0.51620    0.20510    1.000
    Cl30     Cl       0.70780    0.53020    0.12190    1.000
    Co16     Co       0.70050    0.50250    0.20425    1.000
    C139     C        0.84840    0.45790    0.26720    1.000
    H91      H        0.85890    0.44480    0.29870    1.000
    C140     C        0.88210    0.46360    0.22680    1.000
    H92      H        0.91600    0.45280    0.23000    1.000
    C141     C        0.81530    0.50300    0.17740    1.000
    H93      H        0.80520    0.52060    0.14810    1.000
    C142     C        0.76500    0.44570    0.34580    1.000
    H94      H        0.79610    0.43000    0.35340    1.000
    C143     C        0.72550    0.44720    0.38270    1.000
    H95      H        0.73120    0.43760    0.41660    1.000
    C144     C        0.67070    0.48140    0.31620    1.000
    H96      H        0.63800    0.49230    0.30700    1.000
    N31      N        0.78140    0.49550    0.21380    1.000
    N32      N        0.70990    0.48420    0.27850    1.000
    O48      O        0.03790    0.44860    0.02640    1.000
    Cl31     Cl       0.64890    0.54140    0.20970    1.000
    Cl32     Cl       0.69910    0.46240    0.11330    1.000
    Zr9      Zr       0.40759    0.98687    0.98470    1.000
    O49      O        0.46440    0.94950    0.93170    1.000
    C145     C        0.31957    0.13527    0.98600    1.000
    C146     C        0.36352    0.10039    0.99375    1.000
    O50      O        0.40551    0.12166    0.00641    1.000
    O51      O        0.35497    0.05292    0.98735    1.000
    C147     C        0.13380    0.32180    0.96350    1.000
    C148     C        0.09846    0.36590    0.96720    1.000
    O52      O        0.12041    0.40977    0.96810    1.000
    O53      O        0.05116    0.35666    0.96915    1.000
    C149     C        0.24160    0.20330    0.97310    1.000
    C150     C        0.20150    0.24270    0.96750    1.000
    C151     C        0.22810    0.15050    0.98760    1.000
    H97      H        0.19510    0.14070    0.99690    1.000
    C152     C        0.26990    0.11640    0.98590    1.000
    H98      H        0.26420    0.08120    0.98480    1.000
    C153     C        0.32850    0.18950    0.98500    1.000
    H99      H        0.36100    0.20250    0.99210    1.000
    C154     C        0.14740    0.23160    0.96730    1.000
    H100     H        0.13570    0.19790    0.96740    1.000
    C155     C        0.11640    0.26820    0.96710    1.000
    H101     H        0.08150    0.26150    0.96930    1.000
    C156     C        0.18580    0.32860    0.96460    1.000
    H102     H        0.19890    0.36170    0.96330    1.000
    N33      N        0.28960    0.22140    0.97370    1.000
    N34      N        0.21750    0.29010    0.96750    1.000
    Co17     Co       0.29983    0.30084    0.96813    1.000
    Cl33     Cl       0.29490    0.38680    0.01620    1.000
    Cl34     Cl       0.37810    0.29220    0.03020    1.000
    Co18     Co       0.29575    0.29950    0.00250    1.000
    C157     C        0.23280    0.15160    0.95790    1.000
    H103     H        0.20130    0.14110    0.94480    1.000
    C158     C        0.27320    0.11790    0.96360    1.000
    H104     H        0.27000    0.08400    0.95280    1.000
    C159     C        0.32260    0.18470    0.00300    1.000
    H105     H        0.35190    0.19480    0.02060    1.000
    C160     C        0.15420    0.23500    0.94570    1.000
    H106     H        0.14660    0.20390    0.93000    1.000
    C161     C        0.11730    0.27450    0.94720    1.000
    H107     H        0.08340    0.26880    0.93760    1.000
    C162     C        0.18380    0.32930    0.98140    1.000
    H108     H        0.19300    0.36200    0.99230    1.000
    N35      N        0.28620    0.21860    0.99550    1.000
    N36      N        0.22150    0.29010    0.98420    1.000
    O54      O        0.47360    0.96210    0.94860    1.000
    Cl35     Cl       0.29030    0.35110    0.04140    1.000
    Cl36     Cl       0.38670    0.30090    0.96240    1.000
    Zr10     Zr       0.59241    0.48687    0.51530    1.000
    O55      O        0.53560    0.44950    0.56830    1.000
    C163     C        0.68043    0.63527    0.51400    1.000
    C164     C        0.63648    0.60039    0.50625    1.000
    O56      O        0.59449    0.62166    0.49359    1.000
    O57      O        0.64503    0.55292    0.51265    1.000
    C165     C        0.86620    0.82180    0.53650    1.000
    C166     C        0.90154    0.86590    0.53280    1.000
    O58      O        0.87959    0.90977    0.53190    1.000
    O59      O        0.94884    0.85666    0.53085    1.000
    C167     C        0.75840    0.70330    0.52690    1.000
    C168     C        0.79850    0.74270    0.53250    1.000
    C169     C        0.77190    0.65050    0.51240    1.000
    H109     H        0.80490    0.64070    0.50310    1.000
    C170     C        0.73010    0.61640    0.51410    1.000
    H110     H        0.73580    0.58120    0.51520    1.000
    C171     C        0.67150    0.68950    0.51500    1.000
    H111     H        0.63900    0.70250    0.50790    1.000
    C172     C        0.85260    0.73160    0.53270    1.000
    H112     H        0.86430    0.69790    0.53260    1.000
    C173     C        0.88360    0.76820    0.53290    1.000
    H113     H        0.91850    0.76150    0.53070    1.000
    C174     C        0.81420    0.82860    0.53540    1.000
    H114     H        0.80110    0.86170    0.53670    1.000
    N37      N        0.71040    0.72140    0.52630    1.000
    N38      N        0.78250    0.79010    0.53250    1.000
    Co19     Co       0.70017    0.80084    0.53187    1.000
    Cl37     Cl       0.70510    0.88680    0.48380    1.000
    Cl38     Cl       0.62190    0.79220    0.46980    1.000
    Co20     Co       0.70425    0.79950    0.49750    1.000
    C175     C        0.76720    0.65160    0.54210    1.000
    H115     H        0.79870    0.64110    0.55520    1.000
    C176     C        0.72680    0.61790    0.53640    1.000
    H116     H        0.73000    0.58400    0.54720    1.000
    C177     C        0.67740    0.68470    0.49700    1.000
    H117     H        0.64810    0.69480    0.47940    1.000
    C178     C        0.84580    0.73500    0.55430    1.000
    H118     H        0.85340    0.70390    0.57000    1.000
    C179     C        0.88270    0.77450    0.55280    1.000
    H119     H        0.91660    0.76880    0.56240    1.000
    C180     C        0.81620    0.82930    0.51860    1.000
    H120     H        0.80700    0.86200    0.50770    1.000
    N39      N        0.71380    0.71860    0.50450    1.000
    N40      N        0.77850    0.79010    0.51580    1.000
    O60      O        0.52640    0.46210    0.55140    1.000
    Cl39     Cl       0.70970    0.85110    0.45860    1.000
    Cl40     Cl       0.61330    0.80090    0.53760    1.000
    Zr11     Zr       0.90759    0.51313    0.01530    1.000
    O61      O        0.96440    0.55050    0.06830    1.000
    C181     C        0.81957    0.36473    0.01400    1.000
    C182     C        0.86352    0.39961    0.00625    1.000
    O62      O        0.90551    0.37834    0.99359    1.000
    O63      O        0.85497    0.44708    0.01265    1.000
    C183     C        0.63380    0.17820    0.03650    1.000
    C184     C        0.59846    0.13410    0.03280    1.000
    O64      O        0.62041    0.09023    0.03190    1.000
    O65      O        0.55116    0.14334    0.03085    1.000
    C185     C        0.74160    0.29670    0.02690    1.000
    C186     C        0.70150    0.25730    0.03250    1.000
    C187     C        0.72810    0.34950    0.01240    1.000
    H121     H        0.69510    0.35930    0.00310    1.000
    C188     C        0.76990    0.38360    0.01410    1.000
    H122     H        0.76420    0.41880    0.01520    1.000
    C189     C        0.82850    0.31050    0.01500    1.000
    H123     H        0.86100    0.29750    0.00790    1.000
    C190     C        0.64740    0.26840    0.03270    1.000
    H124     H        0.63570    0.30210    0.03260    1.000
    C191     C        0.61640    0.23180    0.03290    1.000
    H125     H        0.58150    0.23850    0.03070    1.000
    C192     C        0.68580    0.17140    0.03540    1.000
    H126     H        0.69890    0.13830    0.03670    1.000
    N41      N        0.78960    0.27860    0.02630    1.000
    N42      N        0.71750    0.20990    0.03250    1.000
    Co21     Co       0.79983    0.19916    0.03187    1.000
    Cl41     Cl       0.79490    0.11320    0.98380    1.000
    Cl42     Cl       0.87810    0.20780    0.96980    1.000
    Co22     Co       0.79575    0.20050    0.99750    1.000
    C193     C        0.73280    0.34840    0.04210    1.000
    H127     H        0.70130    0.35890    0.05520    1.000
    C194     C        0.77320    0.38210    0.03640    1.000
    H128     H        0.77000    0.41600    0.04720    1.000
    C195     C        0.82260    0.31530    0.99700    1.000
    H129     H        0.85190    0.30520    0.97940    1.000
    C196     C        0.65420    0.26500    0.05430    1.000
    H130     H        0.64660    0.29610    0.07000    1.000
    C197     C        0.61730    0.22550    0.05280    1.000
    H131     H        0.58340    0.23120    0.06240    1.000
    C198     C        0.68380    0.17070    0.01860    1.000
    H132     H        0.69300    0.13800    0.00770    1.000
    N43      N        0.78620    0.28140    0.00450    1.000
    N44      N        0.72150    0.20990    0.01580    1.000
    O66      O        0.97360    0.53790    0.05140    1.000
    Cl43     Cl       0.79030    0.14890    0.95860    1.000
    Cl44     Cl       0.88670    0.19910    0.03760    1.000
    Zr12     Zr       0.09241    0.01313    0.48470    1.000
    O67      O        0.03560    0.05050    0.43170    1.000
    C199     C        0.18043    0.86473    0.48600    1.000
    C200     C        0.13648    0.89961    0.49375    1.000
    O68      O        0.09449    0.87834    0.50641    1.000
    O69      O        0.14503    0.94708    0.48735    1.000
    C201     C        0.36620    0.67820    0.46350    1.000
    C202     C        0.40154    0.63410    0.46720    1.000
    O70      O        0.37959    0.59023    0.46810    1.000
    O71      O        0.44884    0.64334    0.46915    1.000
    C203     C        0.25840    0.79670    0.47310    1.000
    C204     C        0.29850    0.75730    0.46750    1.000
    C205     C        0.27190    0.84950    0.48760    1.000
    H133     H        0.30490    0.85930    0.49690    1.000
    C206     C        0.23010    0.88360    0.48590    1.000
    H134     H        0.23580    0.91880    0.48480    1.000
    C207     C        0.17150    0.81050    0.48500    1.000
    H135     H        0.13900    0.79750    0.49210    1.000
    C208     C        0.35260    0.76840    0.46730    1.000
    H136     H        0.36430    0.80210    0.46740    1.000
    C209     C        0.38360    0.73180    0.46710    1.000
    H137     H        0.41850    0.73850    0.46930    1.000
    C210     C        0.31420    0.67140    0.46460    1.000
    H138     H        0.30110    0.63830    0.46330    1.000
    N45      N        0.21040    0.77860    0.47370    1.000
    N46      N        0.28250    0.70990    0.46750    1.000
    Co23     Co       0.20017    0.69916    0.46813    1.000
    Cl45     Cl       0.20510    0.61320    0.51620    1.000
    Cl46     Cl       0.12190    0.70780    0.53020    1.000
    Co24     Co       0.20425    0.70050    0.50250    1.000
    C211     C        0.26720    0.84840    0.45790    1.000
    H139     H        0.29870    0.85890    0.44480    1.000
    C212     C        0.22680    0.88210    0.46360    1.000
    H140     H        0.23000    0.91600    0.45280    1.000
    C213     C        0.17740    0.81530    0.50300    1.000
    H141     H        0.14810    0.80520    0.52060    1.000
    C214     C        0.34580    0.76500    0.44570    1.000
    H142     H        0.35340    0.79610    0.43000    1.000
    C215     C        0.38270    0.72550    0.44720    1.000
    H143     H        0.41660    0.73120    0.43760    1.000
    C216     C        0.31620    0.67070    0.48140    1.000
    H144     H        0.30700    0.63800    0.49230    1.000
    N47      N        0.21380    0.78140    0.49550    1.000
    N48      N        0.27850    0.70990    0.48420    1.000
    O72      O        0.02640    0.03790    0.44860    1.000
    Cl47     Cl       0.20970    0.64890    0.54140    1.000
    Cl48     Cl       0.11330    0.69910    0.46240    1.000
    Zr13     Zr       0.01530    0.59241    0.01313    1.000
    O73      O        0.06830    0.53560    0.05050    1.000
    C217     C        0.01400    0.68043    0.86473    1.000
    C218     C        0.00625    0.63648    0.89961    1.000
    O74      O        0.99359    0.59449    0.87834    1.000
    O75      O        0.01265    0.64503    0.94708    1.000
    C219     C        0.03650    0.86620    0.67820    1.000
    C220     C        0.03280    0.90154    0.63410    1.000
    O76      O        0.03190    0.87959    0.59023    1.000
    O77      O        0.03085    0.94884    0.64334    1.000
    C221     C        0.02690    0.75840    0.79670    1.000
    C222     C        0.03250    0.79850    0.75730    1.000
    C223     C        0.01240    0.77190    0.84950    1.000
    H145     H        0.00310    0.80490    0.85930    1.000
    C224     C        0.01410    0.73010    0.88360    1.000
    H146     H        0.01520    0.73580    0.91880    1.000
    C225     C        0.01500    0.67150    0.81050    1.000
    H147     H        0.00790    0.63900    0.79750    1.000
    C226     C        0.03270    0.85260    0.76840    1.000
    H148     H        0.03260    0.86430    0.80210    1.000
    C227     C        0.03290    0.88360    0.73180    1.000
    H149     H        0.03070    0.91850    0.73850    1.000
    C228     C        0.03540    0.81420    0.67140    1.000
    H150     H        0.03670    0.80110    0.63830    1.000
    N49      N        0.02630    0.71040    0.77860    1.000
    N50      N        0.03250    0.78250    0.70990    1.000
    Co25     Co       0.03187    0.70017    0.69916    1.000
    Cl49     Cl       0.98380    0.70510    0.61320    1.000
    Cl50     Cl       0.96980    0.62190    0.70780    1.000
    Co26     Co       0.99750    0.70425    0.70050    1.000
    C229     C        0.04210    0.76720    0.84840    1.000
    H151     H        0.05520    0.79870    0.85890    1.000
    C230     C        0.03640    0.72680    0.88210    1.000
    H152     H        0.04720    0.73000    0.91600    1.000
    C231     C        0.99700    0.67740    0.81530    1.000
    H153     H        0.97940    0.64810    0.80520    1.000
    C232     C        0.05430    0.84580    0.76500    1.000
    H154     H        0.07000    0.85340    0.79610    1.000
    C233     C        0.05280    0.88270    0.72550    1.000
    H155     H        0.06240    0.91660    0.73120    1.000
    C234     C        0.01860    0.81620    0.67070    1.000
    H156     H        0.00770    0.80700    0.63800    1.000
    N51      N        0.00450    0.71380    0.78140    1.000
    N52      N        0.01580    0.77850    0.70990    1.000
    O78      O        0.05140    0.52640    0.03790    1.000
    Cl51     Cl       0.95860    0.70970    0.64890    1.000
    Cl52     Cl       0.03760    0.61330    0.69910    1.000
    Zr14     Zr       0.48470    0.40759    0.51313    1.000
    O79      O        0.43170    0.46440    0.55050    1.000
    C235     C        0.48600    0.31957    0.36473    1.000
    C236     C        0.49375    0.36352    0.39961    1.000
    O80      O        0.50641    0.40551    0.37834    1.000
    O81      O        0.48735    0.35497    0.44708    1.000
    C237     C        0.46350    0.13380    0.17820    1.000
    C238     C        0.46720    0.09846    0.13410    1.000
    O82      O        0.46810    0.12041    0.09023    1.000
    O83      O        0.46915    0.05116    0.14334    1.000
    C239     C        0.47310    0.24160    0.29670    1.000
    C240     C        0.46750    0.20150    0.25730    1.000
    C241     C        0.48760    0.22810    0.34950    1.000
    H157     H        0.49690    0.19510    0.35930    1.000
    C242     C        0.48590    0.26990    0.38360    1.000
    H158     H        0.48480    0.26420    0.41880    1.000
    C243     C        0.48500    0.32850    0.31050    1.000
    H159     H        0.49210    0.36100    0.29750    1.000
    C244     C        0.46730    0.14740    0.26840    1.000
    H160     H        0.46740    0.13570    0.30210    1.000
    C245     C        0.46710    0.11640    0.23180    1.000
    H161     H        0.46930    0.08150    0.23850    1.000
    C246     C        0.46460    0.18580    0.17140    1.000
    H162     H        0.46330    0.19890    0.13830    1.000
    N53      N        0.47370    0.28960    0.27860    1.000
    N54      N        0.46750    0.21750    0.20990    1.000
    Co27     Co       0.46813    0.29983    0.19916    1.000
    Cl53     Cl       0.51620    0.29490    0.11320    1.000
    Cl54     Cl       0.53020    0.37810    0.20780    1.000
    Co28     Co       0.50250    0.29575    0.20050    1.000
    C247     C        0.45790    0.23280    0.34840    1.000
    H163     H        0.44480    0.20130    0.35890    1.000
    C248     C        0.46360    0.27320    0.38210    1.000
    H164     H        0.45280    0.27000    0.41600    1.000
    C249     C        0.50300    0.32260    0.31530    1.000
    H165     H        0.52060    0.35190    0.30520    1.000
    C250     C        0.44570    0.15420    0.26500    1.000
    H166     H        0.43000    0.14660    0.29610    1.000
    C251     C        0.44720    0.11730    0.22550    1.000
    H167     H        0.43760    0.08340    0.23120    1.000
    C252     C        0.48140    0.18380    0.17070    1.000
    H168     H        0.49230    0.19300    0.13800    1.000
    N55      N        0.49550    0.28620    0.28140    1.000
    N56      N        0.48420    0.22150    0.20990    1.000
    O84      O        0.44860    0.47360    0.53790    1.000
    Cl55     Cl       0.54140    0.29030    0.14890    1.000
    Cl56     Cl       0.46240    0.38670    0.19910    1.000
    Zr15     Zr       0.98470    0.09241    0.48687    1.000
    O85      O        0.93170    0.03560    0.44950    1.000
    C253     C        0.98600    0.18043    0.63527    1.000
    C254     C        0.99375    0.13648    0.60039    1.000
    O86      O        0.00641    0.09449    0.62166    1.000
    O87      O        0.98735    0.14503    0.55292    1.000
    C255     C        0.96350    0.36620    0.82180    1.000
    C256     C        0.96720    0.40154    0.86590    1.000
    O88      O        0.96810    0.37959    0.90977    1.000
    O89      O        0.96915    0.44884    0.85666    1.000
    C257     C        0.97310    0.25840    0.70330    1.000
    C258     C        0.96750    0.29850    0.74270    1.000
    C259     C        0.98760    0.27190    0.65050    1.000
    H169     H        0.99690    0.30490    0.64070    1.000
    C260     C        0.98590    0.23010    0.61640    1.000
    H170     H        0.98480    0.23580    0.58120    1.000
    C261     C        0.98500    0.17150    0.68950    1.000
    H171     H        0.99210    0.13900    0.70250    1.000
    C262     C        0.96730    0.35260    0.73160    1.000
    H172     H        0.96740    0.36430    0.69790    1.000
    C263     C        0.96710    0.38360    0.76820    1.000
    H173     H        0.96930    0.41850    0.76150    1.000
    C264     C        0.96460    0.31420    0.82860    1.000
    H174     H        0.96330    0.30110    0.86170    1.000
    N57      N        0.97370    0.21040    0.72140    1.000
    N58      N        0.96750    0.28250    0.79010    1.000
    Co29     Co       0.96813    0.20017    0.80084    1.000
    Cl57     Cl       0.01620    0.20510    0.88680    1.000
    Cl58     Cl       0.03020    0.12190    0.79220    1.000
    Co30     Co       0.00250    0.20425    0.79950    1.000
    C265     C        0.95790    0.26720    0.65160    1.000
    H175     H        0.94480    0.29870    0.64110    1.000
    C266     C        0.96360    0.22680    0.61790    1.000
    H176     H        0.95280    0.23000    0.58400    1.000
    C267     C        0.00300    0.17740    0.68470    1.000
    H177     H        0.02060    0.14810    0.69480    1.000
    C268     C        0.94570    0.34580    0.73500    1.000
    H178     H        0.93000    0.35340    0.70390    1.000
    C269     C        0.94720    0.38270    0.77450    1.000
    H179     H        0.93760    0.41660    0.76880    1.000
    C270     C        0.98140    0.31620    0.82930    1.000
    H180     H        0.99230    0.30700    0.86200    1.000
    N59      N        0.99550    0.21380    0.71860    1.000
    N60      N        0.98420    0.27850    0.79010    1.000
    O90      O        0.94860    0.02640    0.46210    1.000
    Cl59     Cl       0.04140    0.20970    0.85110    1.000
    Cl60     Cl       0.96240    0.11330    0.80090    1.000
    Zr16     Zr       0.51530    0.90759    0.98687    1.000
    O91      O        0.56830    0.96440    0.94950    1.000
    C271     C        0.51400    0.81957    0.13527    1.000
    C272     C        0.50625    0.86352    0.10039    1.000
    O92      O        0.49359    0.90551    0.12166    1.000
    O93      O        0.51265    0.85497    0.05292    1.000
    C273     C        0.53650    0.63380    0.32180    1.000
    C274     C        0.53280    0.59846    0.36590    1.000
    O94      O        0.53190    0.62041    0.40977    1.000
    O95      O        0.53085    0.55116    0.35666    1.000
    C275     C        0.52690    0.74160    0.20330    1.000
    C276     C        0.53250    0.70150    0.24270    1.000
    C277     C        0.51240    0.72810    0.15050    1.000
    H181     H        0.50310    0.69510    0.14070    1.000
    C278     C        0.51410    0.76990    0.11640    1.000
    H182     H        0.51520    0.76420    0.08120    1.000
    C279     C        0.51500    0.82850    0.18950    1.000
    H183     H        0.50790    0.86100    0.20250    1.000
    C280     C        0.53270    0.64740    0.23160    1.000
    H184     H        0.53260    0.63570    0.19790    1.000
    C281     C        0.53290    0.61640    0.26820    1.000
    H185     H        0.53070    0.58150    0.26150    1.000
    C282     C        0.53540    0.68580    0.32860    1.000
    H186     H        0.53670    0.69890    0.36170    1.000
    N61      N        0.52630    0.78960    0.22140    1.000
    N62      N        0.53250    0.71750    0.29010    1.000
    Co31     Co       0.53187    0.79983    0.30084    1.000
    Cl61     Cl       0.48380    0.79490    0.38680    1.000
    Cl62     Cl       0.46980    0.87810    0.29220    1.000
    Co32     Co       0.49750    0.79575    0.29950    1.000
    C283     C        0.54210    0.73280    0.15160    1.000
    H187     H        0.55520    0.70130    0.14110    1.000
    C284     C        0.53640    0.77320    0.11790    1.000
    H188     H        0.54720    0.77000    0.08400    1.000
    C285     C        0.49700    0.82260    0.18470    1.000
    H189     H        0.47940    0.85190    0.19480    1.000
    C286     C        0.55430    0.65420    0.23500    1.000
    H190     H        0.57000    0.64660    0.20390    1.000
    C287     C        0.55280    0.61730    0.27450    1.000
    H191     H        0.56240    0.58340    0.26880    1.000
    C288     C        0.51860    0.68380    0.32930    1.000
    H192     H        0.50770    0.69300    0.36200    1.000
    N63      N        0.50450    0.78620    0.21860    1.000
    N64      N        0.51580    0.72150    0.29010    1.000
    O96      O        0.55140    0.97360    0.96210    1.000
    Cl63     Cl       0.45860    0.79030    0.35110    1.000
    Cl64     Cl       0.53760    0.88670    0.30090    1.000
    Zr17     Zr       0.01313    0.01530    0.59241    1.000
    O97      O        0.05050    0.06830    0.53560    1.000
    C289     C        0.86473    0.01400    0.68043    1.000
    C290     C        0.89961    0.00625    0.63648    1.000
    O98      O        0.87834    0.99359    0.59449    1.000
    O99      O        0.94708    0.01265    0.64503    1.000
    C291     C        0.67820    0.03650    0.86620    1.000
    C292     C        0.63410    0.03280    0.90154    1.000
    O100     O        0.59023    0.03190    0.87959    1.000
    O101     O        0.64334    0.03085    0.94884    1.000
    C293     C        0.79670    0.02690    0.75840    1.000
    C294     C        0.75730    0.03250    0.79850    1.000
    C295     C        0.84950    0.01240    0.77190    1.000
    H193     H        0.85930    0.00310    0.80490    1.000
    C296     C        0.88360    0.01410    0.73010    1.000
    H194     H        0.91880    0.01520    0.73580    1.000
    C297     C        0.81050    0.01500    0.67150    1.000
    H195     H        0.79750    0.00790    0.63900    1.000
    C298     C        0.76840    0.03270    0.85260    1.000
    H196     H        0.80210    0.03260    0.86430    1.000
    C299     C        0.73180    0.03290    0.88360    1.000
    H197     H        0.73850    0.03070    0.91850    1.000
    C300     C        0.67140    0.03540    0.81420    1.000
    H198     H        0.63830    0.03670    0.80110    1.000
    N65      N        0.77860    0.02630    0.71040    1.000
    N66      N        0.70990    0.03250    0.78250    1.000
    Co33     Co       0.69916    0.03187    0.70017    1.000
    Cl65     Cl       0.61320    0.98380    0.70510    1.000
    Cl66     Cl       0.70780    0.96980    0.62190    1.000
    Co34     Co       0.70050    0.99750    0.70425    1.000
    C301     C        0.84840    0.04210    0.76720    1.000
    H199     H        0.85890    0.05520    0.79870    1.000
    C302     C        0.88210    0.03640    0.72680    1.000
    H200     H        0.91600    0.04720    0.73000    1.000
    C303     C        0.81530    0.99700    0.67740    1.000
    H201     H        0.80520    0.97940    0.64810    1.000
    C304     C        0.76500    0.05430    0.84580    1.000
    H202     H        0.79610    0.07000    0.85340    1.000
    C305     C        0.72550    0.05280    0.88270    1.000
    H203     H        0.73120    0.06240    0.91660    1.000
    C306     C        0.67070    0.01860    0.81620    1.000
    H204     H        0.63800    0.00770    0.80700    1.000
    N67      N        0.78140    0.00450    0.71380    1.000
    N68      N        0.70990    0.01580    0.77850    1.000
    O102     O        0.03790    0.05140    0.52640    1.000
    Cl67     Cl       0.64890    0.95860    0.70970    1.000
    Cl68     Cl       0.69910    0.03760    0.61330    1.000
    Zr18     Zr       0.51313    0.48470    0.40759    1.000
    O103     O        0.55050    0.43170    0.46440    1.000
    C307     C        0.36473    0.48600    0.31957    1.000
    C308     C        0.39961    0.49375    0.36352    1.000
    O104     O        0.37834    0.50641    0.40551    1.000
    O105     O        0.44708    0.48735    0.35497    1.000
    C309     C        0.17820    0.46350    0.13380    1.000
    C310     C        0.13410    0.46720    0.09846    1.000
    O106     O        0.09023    0.46810    0.12041    1.000
    O107     O        0.14334    0.46915    0.05116    1.000
    C311     C        0.29670    0.47310    0.24160    1.000
    C312     C        0.25730    0.46750    0.20150    1.000
    C313     C        0.34950    0.48760    0.22810    1.000
    H205     H        0.35930    0.49690    0.19510    1.000
    C314     C        0.38360    0.48590    0.26990    1.000
    H206     H        0.41880    0.48480    0.26420    1.000
    C315     C        0.31050    0.48500    0.32850    1.000
    H207     H        0.29750    0.49210    0.36100    1.000
    C316     C        0.26840    0.46730    0.14740    1.000
    H208     H        0.30210    0.46740    0.13570    1.000
    C317     C        0.23180    0.46710    0.11640    1.000
    H209     H        0.23850    0.46930    0.08150    1.000
    C318     C        0.17140    0.46460    0.18580    1.000
    H210     H        0.13830    0.46330    0.19890    1.000
    N69      N        0.27860    0.47370    0.28960    1.000
    N70      N        0.20990    0.46750    0.21750    1.000
    Co35     Co       0.19916    0.46813    0.29983    1.000
    Cl69     Cl       0.11320    0.51620    0.29490    1.000
    Cl70     Cl       0.20780    0.53020    0.37810    1.000
    Co36     Co       0.20050    0.50250    0.29575    1.000
    C319     C        0.34840    0.45790    0.23280    1.000
    H211     H        0.35890    0.44480    0.20130    1.000
    C320     C        0.38210    0.46360    0.27320    1.000
    H212     H        0.41600    0.45280    0.27000    1.000
    C321     C        0.31530    0.50300    0.32260    1.000
    H213     H        0.30520    0.52060    0.35190    1.000
    C322     C        0.26500    0.44570    0.15420    1.000
    H214     H        0.29610    0.43000    0.14660    1.000
    C323     C        0.22550    0.44720    0.11730    1.000
    H215     H        0.23120    0.43760    0.08340    1.000
    C324     C        0.17070    0.48140    0.18380    1.000
    H216     H        0.13800    0.49230    0.19300    1.000
    N71      N        0.28140    0.49550    0.28620    1.000
    N72      N        0.20990    0.48420    0.22150    1.000
    O108     O        0.53790    0.44860    0.47360    1.000
    Cl71     Cl       0.14890    0.54140    0.29030    1.000
    Cl72     Cl       0.19910    0.46240    0.38670    1.000
    Zr19     Zr       0.48687    0.98470    0.09241    1.000
    O109     O        0.44950    0.93170    0.03560    1.000
    C325     C        0.63527    0.98600    0.18043    1.000
    C326     C        0.60039    0.99375    0.13648    1.000
    O110     O        0.62166    0.00641    0.09449    1.000
    O111     O        0.55292    0.98735    0.14503    1.000
    C327     C        0.82180    0.96350    0.36620    1.000
    C328     C        0.86590    0.96720    0.40154    1.000
    O112     O        0.90977    0.96810    0.37959    1.000
    O113     O        0.85666    0.96915    0.44884    1.000
    C329     C        0.70330    0.97310    0.25840    1.000
    C330     C        0.74270    0.96750    0.29850    1.000
    C331     C        0.65050    0.98760    0.27190    1.000
    H217     H        0.64070    0.99690    0.30490    1.000
    C332     C        0.61640    0.98590    0.23010    1.000
    H218     H        0.58120    0.98480    0.23580    1.000
    C333     C        0.68950    0.98500    0.17150    1.000
    H219     H        0.70250    0.99210    0.13900    1.000
    C334     C        0.73160    0.96730    0.35260    1.000
    H220     H        0.69790    0.96740    0.36430    1.000
    C335     C        0.76820    0.96710    0.38360    1.000
    H221     H        0.76150    0.96930    0.41850    1.000
    C336     C        0.82860    0.96460    0.31420    1.000
    H222     H        0.86170    0.96330    0.30110    1.000
    N73      N        0.72140    0.97370    0.21040    1.000
    N74      N        0.79010    0.96750    0.28250    1.000
    Co37     Co       0.80084    0.96813    0.20017    1.000
    Cl73     Cl       0.88680    0.01620    0.20510    1.000
    Cl74     Cl       0.79220    0.03020    0.12190    1.000
    Co38     Co       0.79950    0.00250    0.20425    1.000
    C337     C        0.65160    0.95790    0.26720    1.000
    H223     H        0.64110    0.94480    0.29870    1.000
    C338     C        0.61790    0.96360    0.22680    1.000
    H224     H        0.58400    0.95280    0.23000    1.000
    C339     C        0.68470    0.00300    0.17740    1.000
    H225     H        0.69480    0.02060    0.14810    1.000
    C340     C        0.73500    0.94570    0.34580    1.000
    H226     H        0.70390    0.93000    0.35340    1.000
    C341     C        0.77450    0.94720    0.38270    1.000
    H227     H        0.76880    0.93760    0.41660    1.000
    C342     C        0.82930    0.98140    0.31620    1.000
    H228     H        0.86200    0.99230    0.30700    1.000
    N75      N        0.71860    0.99550    0.21380    1.000
    N76      N        0.79010    0.98420    0.27850    1.000
    O114     O        0.46210    0.94860    0.02640    1.000
    Cl75     Cl       0.85110    0.04140    0.20970    1.000
    Cl76     Cl       0.80090    0.96240    0.11330    1.000
    Zr20     Zr       0.98687    0.51530    0.90759    1.000
    O115     O        0.94950    0.56830    0.96440    1.000
    C343     C        0.13527    0.51400    0.81957    1.000
    C344     C        0.10039    0.50625    0.86352    1.000
    O116     O        0.12166    0.49359    0.90551    1.000
    O117     O        0.05292    0.51265    0.85497    1.000
    C345     C        0.32180    0.53650    0.63380    1.000
    C346     C        0.36590    0.53280    0.59846    1.000
    O118     O        0.40977    0.53190    0.62041    1.000
    O119     O        0.35666    0.53085    0.55116    1.000
    C347     C        0.20330    0.52690    0.74160    1.000
    C348     C        0.24270    0.53250    0.70150    1.000
    C349     C        0.15050    0.51240    0.72810    1.000
    H229     H        0.14070    0.50310    0.69510    1.000
    C350     C        0.11640    0.51410    0.76990    1.000
    H230     H        0.08120    0.51520    0.76420    1.000
    C351     C        0.18950    0.51500    0.82850    1.000
    H231     H        0.20250    0.50790    0.86100    1.000
    C352     C        0.23160    0.53270    0.64740    1.000
    H232     H        0.19790    0.53260    0.63570    1.000
    C353     C        0.26820    0.53290    0.61640    1.000
    H233     H        0.26150    0.53070    0.58150    1.000
    C354     C        0.32860    0.53540    0.68580    1.000
    H234     H        0.36170    0.53670    0.69890    1.000
    N77      N        0.22140    0.52630    0.78960    1.000
    N78      N        0.29010    0.53250    0.71750    1.000
    Co39     Co       0.30084    0.53187    0.79983    1.000
    Cl77     Cl       0.38680    0.48380    0.79490    1.000
    Cl78     Cl       0.29220    0.46980    0.87810    1.000
    Co40     Co       0.29950    0.49750    0.79575    1.000
    C355     C        0.15160    0.54210    0.73280    1.000
    H235     H        0.14110    0.55520    0.70130    1.000
    C356     C        0.11790    0.53640    0.77320    1.000
    H236     H        0.08400    0.54720    0.77000    1.000
    C357     C        0.18470    0.49700    0.82260    1.000
    H237     H        0.19480    0.47940    0.85190    1.000
    C358     C        0.23500    0.55430    0.65420    1.000
    H238     H        0.20390    0.57000    0.64660    1.000
    C359     C        0.27450    0.55280    0.61730    1.000
    H239     H        0.26880    0.56240    0.58340    1.000
    C360     C        0.32930    0.51860    0.68380    1.000
    H240     H        0.36200    0.50770    0.69300    1.000
    N79      N        0.21860    0.50450    0.78620    1.000
    N80      N        0.29010    0.51580    0.72150    1.000
    O120     O        0.96210    0.55140    0.97360    1.000
    Cl79     Cl       0.35110    0.45860    0.79030    1.000
    Cl80     Cl       0.30090    0.53760    0.88670    1.000
    Zr21     Zr       0.59241    0.01313    0.01530    1.000
    O121     O        0.53560    0.05050    0.06830    1.000
    C361     C        0.68043    0.86473    0.01400    1.000
    C362     C        0.63648    0.89961    0.00625    1.000
    O122     O        0.59449    0.87834    0.99359    1.000
    O123     O        0.64503    0.94708    0.01265    1.000
    C363     C        0.86620    0.67820    0.03650    1.000
    C364     C        0.90154    0.63410    0.03280    1.000
    O124     O        0.87959    0.59023    0.03190    1.000
    O125     O        0.94884    0.64334    0.03085    1.000
    C365     C        0.75840    0.79670    0.02690    1.000
    C366     C        0.79850    0.75730    0.03250    1.000
    C367     C        0.77190    0.84950    0.01240    1.000
    H241     H        0.80490    0.85930    0.00310    1.000
    C368     C        0.73010    0.88360    0.01410    1.000
    H242     H        0.73580    0.91880    0.01520    1.000
    C369     C        0.67150    0.81050    0.01500    1.000
    H243     H        0.63900    0.79750    0.00790    1.000
    C370     C        0.85260    0.76840    0.03270    1.000
    H244     H        0.86430    0.80210    0.03260    1.000
    C371     C        0.88360    0.73180    0.03290    1.000
    H245     H        0.91850    0.73850    0.03070    1.000
    C372     C        0.81420    0.67140    0.03540    1.000
    H246     H        0.80110    0.63830    0.03670    1.000
    N81      N        0.71040    0.77860    0.02630    1.000
    N82      N        0.78250    0.70990    0.03250    1.000
    Co41     Co       0.70017    0.69916    0.03187    1.000
    Cl81     Cl       0.70510    0.61320    0.98380    1.000
    Cl82     Cl       0.62190    0.70780    0.96980    1.000
    Co42     Co       0.70425    0.70050    0.99750    1.000
    C373     C        0.76720    0.84840    0.04210    1.000
    H247     H        0.79870    0.85890    0.05520    1.000
    C374     C        0.72680    0.88210    0.03640    1.000
    H248     H        0.73000    0.91600    0.04720    1.000
    C375     C        0.67740    0.81530    0.99700    1.000
    H249     H        0.64810    0.80520    0.97940    1.000
    C376     C        0.84580    0.76500    0.05430    1.000
    H250     H        0.85340    0.79610    0.07000    1.000
    C377     C        0.88270    0.72550    0.05280    1.000
    H251     H        0.91660    0.73120    0.06240    1.000
    C378     C        0.81620    0.67070    0.01860    1.000
    H252     H        0.80700    0.63800    0.00770    1.000
    N83      N        0.71380    0.78140    0.00450    1.000
    N84      N        0.77850    0.70990    0.01580    1.000
    O126     O        0.52640    0.03790    0.05140    1.000
    Cl83     Cl       0.70970    0.64890    0.95860    1.000
    Cl84     Cl       0.61330    0.69910    0.03760    1.000
    Zr22     Zr       0.40759    0.51313    0.48470    1.000
    O127     O        0.46440    0.55050    0.43170    1.000
    C379     C        0.31957    0.36473    0.48600    1.000
    C380     C        0.36352    0.39961    0.49375    1.000
    O128     O        0.40551    0.37834    0.50641    1.000
    O129     O        0.35497    0.44708    0.48735    1.000
    C381     C        0.13380    0.17820    0.46350    1.000
    C382     C        0.09846    0.13410    0.46720    1.000
    O130     O        0.12041    0.09023    0.46810    1.000
    O131     O        0.05116    0.14334    0.46915    1.000
    C383     C        0.24160    0.29670    0.47310    1.000
    C384     C        0.20150    0.25730    0.46750    1.000
    C385     C        0.22810    0.34950    0.48760    1.000
    H253     H        0.19510    0.35930    0.49690    1.000
    C386     C        0.26990    0.38360    0.48590    1.000
    H254     H        0.26420    0.41880    0.48480    1.000
    C387     C        0.32850    0.31050    0.48500    1.000
    H255     H        0.36100    0.29750    0.49210    1.000
    C388     C        0.14740    0.26840    0.46730    1.000
    H256     H        0.13570    0.30210    0.46740    1.000
    C389     C        0.11640    0.23180    0.46710    1.000
    H257     H        0.08150    0.23850    0.46930    1.000
    C390     C        0.18580    0.17140    0.46460    1.000
    H258     H        0.19890    0.13830    0.46330    1.000
    N85      N        0.28960    0.27860    0.47370    1.000
    N86      N        0.21750    0.20990    0.46750    1.000
    Co43     Co       0.29983    0.19916    0.46813    1.000
    Cl85     Cl       0.29490    0.11320    0.51620    1.000
    Cl86     Cl       0.37810    0.20780    0.53020    1.000
    Co44     Co       0.29575    0.20050    0.50250    1.000
    C391     C        0.23280    0.34840    0.45790    1.000
    H259     H        0.20130    0.35890    0.44480    1.000
    C392     C        0.27320    0.38210    0.46360    1.000
    H260     H        0.27000    0.41600    0.45280    1.000
    C393     C        0.32260    0.31530    0.50300    1.000
    H261     H        0.35190    0.30520    0.52060    1.000
    C394     C        0.15420    0.26500    0.44570    1.000
    H262     H        0.14660    0.29610    0.43000    1.000
    C395     C        0.11730    0.22550    0.44720    1.000
    H263     H        0.08340    0.23120    0.43760    1.000
    C396     C        0.18380    0.17070    0.48140    1.000
    H264     H        0.19300    0.13800    0.49230    1.000
    N87      N        0.28620    0.28140    0.49550    1.000
    N88      N        0.22150    0.20990    0.48420    1.000
    O132     O        0.47360    0.53790    0.44860    1.000
    Cl87     Cl       0.29030    0.14890    0.54140    1.000
    Cl88     Cl       0.38670    0.19910    0.46240    1.000
    Zr23     Zr       0.09241    0.48687    0.98470    1.000
    O133     O        0.03560    0.44950    0.93170    1.000
    C397     C        0.18043    0.63527    0.98600    1.000
    C398     C        0.13648    0.60039    0.99375    1.000
    O134     O        0.09449    0.62166    0.00641    1.000
    O135     O        0.14503    0.55292    0.98735    1.000
    C399     C        0.36620    0.82180    0.96350    1.000
    C400     C        0.40154    0.86590    0.96720    1.000
    O136     O        0.37959    0.90977    0.96810    1.000
    O137     O        0.44884    0.85666    0.96915    1.000
    C401     C        0.25840    0.70330    0.97310    1.000
    C402     C        0.29850    0.74270    0.96750    1.000
    C403     C        0.27190    0.65050    0.98760    1.000
    H265     H        0.30490    0.64070    0.99690    1.000
    C404     C        0.23010    0.61640    0.98590    1.000
    H266     H        0.23580    0.58120    0.98480    1.000
    C405     C        0.17150    0.68950    0.98500    1.000
    H267     H        0.13900    0.70250    0.99210    1.000
    C406     C        0.35260    0.73160    0.96730    1.000
    H268     H        0.36430    0.69790    0.96740    1.000
    C407     C        0.38360    0.76820    0.96710    1.000
    H269     H        0.41850    0.76150    0.96930    1.000
    C408     C        0.31420    0.82860    0.96460    1.000
    H270     H        0.30110    0.86170    0.96330    1.000
    N89      N        0.21040    0.72140    0.97370    1.000
    N90      N        0.28250    0.79010    0.96750    1.000
    Co45     Co       0.20017    0.80084    0.96813    1.000
    Cl89     Cl       0.20510    0.88680    0.01620    1.000
    Cl90     Cl       0.12190    0.79220    0.03020    1.000
    Co46     Co       0.20425    0.79950    0.00250    1.000
    C409     C        0.26720    0.65160    0.95790    1.000
    H271     H        0.29870    0.64110    0.94480    1.000
    C410     C        0.22680    0.61790    0.96360    1.000
    H272     H        0.23000    0.58400    0.95280    1.000
    C411     C        0.17740    0.68470    0.00300    1.000
    H273     H        0.14810    0.69480    0.02060    1.000
    C412     C        0.34580    0.73500    0.94570    1.000
    H274     H        0.35340    0.70390    0.93000    1.000
    C413     C        0.38270    0.77450    0.94720    1.000
    H275     H        0.41660    0.76880    0.93760    1.000
    C414     C        0.31620    0.82930    0.98140    1.000
    H276     H        0.30700    0.86200    0.99230    1.000
    N91      N        0.21380    0.71860    0.99550    1.000
    N92      N        0.27850    0.79010    0.98420    1.000
    O138     O        0.02640    0.46210    0.94860    1.000
    Cl91     Cl       0.20970    0.85110    0.04140    1.000
    Cl92     Cl       0.11330    0.80090    0.96240    1.000
    Zr24     Zr       0.90759    0.98687    0.51530    1.000
    O139     O        0.96440    0.94950    0.56830    1.000
    C415     C        0.81957    0.13527    0.51400    1.000
    C416     C        0.86352    0.10039    0.50625    1.000
    O140     O        0.90551    0.12166    0.49359    1.000
    O141     O        0.85497    0.05292    0.51265    1.000
    C417     C        0.63380    0.32180    0.53650    1.000
    C418     C        0.59846    0.36590    0.53280    1.000
    O142     O        0.62041    0.40977    0.53190    1.000
    O143     O        0.55116    0.35666    0.53085    1.000
    C419     C        0.74160    0.20330    0.52690    1.000
    C420     C        0.70150    0.24270    0.53250    1.000
    C421     C        0.72810    0.15050    0.51240    1.000
    H277     H        0.69510    0.14070    0.50310    1.000
    C422     C        0.76990    0.11640    0.51410    1.000
    H278     H        0.76420    0.08120    0.51520    1.000
    C423     C        0.82850    0.18950    0.51500    1.000
    H279     H        0.86100    0.20250    0.50790    1.000
    C424     C        0.64740    0.23160    0.53270    1.000
    H280     H        0.63570    0.19790    0.53260    1.000
    C425     C        0.61640    0.26820    0.53290    1.000
    H281     H        0.58150    0.26150    0.53070    1.000
    C426     C        0.68580    0.32860    0.53540    1.000
    H282     H        0.69890    0.36170    0.53670    1.000
    N93      N        0.78960    0.22140    0.52630    1.000
    N94      N        0.71750    0.29010    0.53250    1.000
    Co47     Co       0.79983    0.30084    0.53187    1.000
    Cl93     Cl       0.79490    0.38680    0.48380    1.000
    Cl94     Cl       0.87810    0.29220    0.46980    1.000
    Co48     Co       0.79575    0.29950    0.49750    1.000
    C427     C        0.73280    0.15160    0.54210    1.000
    H283     H        0.70130    0.14110    0.55520    1.000
    C428     C        0.77320    0.11790    0.53640    1.000
    H284     H        0.77000    0.08400    0.54720    1.000
    C429     C        0.82260    0.18470    0.49700    1.000
    H285     H        0.85190    0.19480    0.47940    1.000
    C430     C        0.65420    0.23500    0.55430    1.000
    H286     H        0.64660    0.20390    0.57000    1.000
    C431     C        0.61730    0.27450    0.55280    1.000
    H287     H        0.58340    0.26880    0.56240    1.000
    C432     C        0.68380    0.32930    0.51860    1.000
    H288     H        0.69300    0.36200    0.50770    1.000
    N95      N        0.78620    0.21860    0.50450    1.000
    N96      N        0.72150    0.29010    0.51580    1.000
    O144     O        0.97360    0.96210    0.55140    1.000
    Cl95     Cl       0.79030    0.35110    0.45860    1.000
    Cl96     Cl       0.88670    0.30090    0.53760    1.000
    O145     O        0.94740    0.44740    0.05260    1.000
    O146     O        0.96110    0.46110    0.03890    1.000
    O147     O        0.55260    0.55260    0.55260    1.000
    O148     O        0.53890    0.53890    0.53890    1.000
    O149     O        0.05260    0.94740    0.44740    1.000
    O150     O        0.03890    0.96110    0.46110    1.000
    O151     O        0.44740    0.05260    0.94740    1.000
    O152     O        0.46110    0.03890    0.96110    1.000
    O153     O        0.05260    0.55260    0.94740    1.000
    O154     O        0.03890    0.53890    0.96110    1.000
    O155     O        0.44740    0.44740    0.44740    1.000
    O156     O        0.46110    0.46110    0.46110    1.000
    O157     O        0.94740    0.05260    0.55260    1.000
    O158     O        0.96110    0.03890    0.53890    1.000
    O159     O        0.55260    0.94740    0.05260    1.000
    O160     O        0.53890    0.96110    0.03890    1.000
