# CIF file generated by openbabel 3.1.0, see https://openbabel.org
data_I
_chemical_name_common 'image0'
_cell_length_a 16.746
_cell_length_b 14.223
_cell_length_c 12.321
_cell_angle_alpha 90
_cell_angle_beta 113.653
_cell_angle_gamma 90
_space_group_name_H-M_alt 'P 1'
_space_group_name_Hall 'P 1'
loop_
    _symmetry_equiv_pos_as_xyz
    x,y,z
loop_
    _atom_site_label
    _atom_site_type_symbol
    _atom_site_fract_x
    _atom_site_fract_y
    _atom_site_fract_z
    _atom_site_occupancy
    N1       N        0.91880    0.32970    0.78240    1.000
    C1       C        0.89190    0.25690    0.70730    1.000
    C2       C        0.89310    0.32970    0.87360    1.000
    C3       C        0.84280    0.18480    0.72170    1.000
    H1       H        0.90730    0.25520    0.64270    1.000
    C4       C        0.84130    0.26240    0.89310    1.000
    H2       H        0.91190    0.37910    0.92730    1.000
    C5       C        0.81650    0.18660    0.81480    1.000
    H3       H        0.82720    0.13460    0.66890    1.000
    C6       C        0.80840    0.27750    0.98870    1.000
    H4       H        0.78280    0.13810    0.82490    1.000
    C7       C        0.79200    0.19310    0.05520    1.000
    H5       H        0.84500    0.32390    0.04570    1.000
    H6       H        0.79910    0.13310    0.02110    1.000
    C8       C        0.84150    0.19510    0.18780    1.000
    N2       N        0.82550    0.12390    0.24630    1.000
    O1       O        0.89010    0.26050    0.23940    1.000
    C9       C        0.85260    0.12290    0.37470    1.000
    H7       H        0.79770    0.07590    0.20640    1.000
    C10      C        0.92900    0.05930    0.43910    1.000
    H8       H        0.80370    0.10310    0.39240    1.000
    H9       H        0.86790    0.18640    0.40450    1.000
    C11      C        0.93060    0.00480    0.53240    1.000
    C12      C        0.00010    0.05350    0.40770    1.000
    H10      H        0.88410    0.00760    0.55530    1.000
    H11      H        0.00070    0.08960    0.34510    1.000
    N3       N        0.41880    0.82970    0.78240    1.000
    C13      C        0.39190    0.75690    0.70730    1.000
    C14      C        0.39310    0.82970    0.87360    1.000
    C15      C        0.34280    0.68480    0.72170    1.000
    H12      H        0.40730    0.75520    0.64270    1.000
    C16      C        0.34130    0.76240    0.89310    1.000
    H13      H        0.41190    0.87910    0.92730    1.000
    C17      C        0.31650    0.68660    0.81480    1.000
    H14      H        0.32720    0.63460    0.66890    1.000
    C18      C        0.30840    0.77750    0.98870    1.000
    H15      H        0.28280    0.63810    0.82490    1.000
    C19      C        0.29200    0.69310    0.05520    1.000
    H16      H        0.34500    0.82390    0.04570    1.000
    H17      H        0.29910    0.63310    0.02110    1.000
    C20      C        0.34150    0.69510    0.18780    1.000
    N4       N        0.32550    0.62390    0.24630    1.000
    O2       O        0.39010    0.76050    0.23940    1.000
    C21      C        0.35260    0.62290    0.37470    1.000
    H18      H        0.29770    0.57590    0.20640    1.000
    C22      C        0.42900    0.55930    0.43910    1.000
    H19      H        0.30370    0.60310    0.39240    1.000
    H20      H        0.36790    0.68640    0.40450    1.000
    C23      C        0.43060    0.50480    0.53240    1.000
    C24      C        0.50010    0.55350    0.40770    1.000
    H21      H        0.38410    0.50760    0.55530    1.000
    H22      H        0.50070    0.58960    0.34510    1.000
    N5       N        0.08120    0.32970    0.71760    1.000
    C25      C        0.10810    0.25690    0.79270    1.000
    C26      C        0.10690    0.32970    0.62640    1.000
    C27      C        0.15720    0.18480    0.77830    1.000
    H23      H        0.09270    0.25520    0.85730    1.000
    C28      C        0.15870    0.26240    0.60690    1.000
    H24      H        0.08810    0.37910    0.57270    1.000
    C29      C        0.18350    0.18660    0.68520    1.000
    H25      H        0.17280    0.13460    0.83110    1.000
    C30      C        0.19160    0.27750    0.51130    1.000
    H26      H        0.21720    0.13810    0.67510    1.000
    C31      C        0.20800    0.19310    0.44480    1.000
    H27      H        0.15500    0.32390    0.45430    1.000
    H28      H        0.20090    0.13310    0.47890    1.000
    C32      C        0.15850    0.19510    0.31220    1.000
    N6       N        0.17450    0.12390    0.25370    1.000
    O3       O        0.10990    0.26050    0.26060    1.000
    C33      C        0.14740    0.12290    0.12530    1.000
    H29      H        0.20230    0.07590    0.29360    1.000
    C34      C        0.07100    0.05930    0.06090    1.000
    H30      H        0.19630    0.10310    0.10760    1.000
    H31      H        0.13210    0.18640    0.09550    1.000
    C35      C        0.06940    0.00480    0.96760    1.000
    C36      C        0.99990    0.05350    0.09230    1.000
    H32      H        0.11590    0.00760    0.94470    1.000
    H33      H        0.99930    0.08960    0.15490    1.000
    N7       N        0.58120    0.82970    0.71760    1.000
    C37      C        0.60810    0.75690    0.79270    1.000
    C38      C        0.60690    0.82970    0.62640    1.000
    C39      C        0.65720    0.68480    0.77830    1.000
    H34      H        0.59270    0.75520    0.85730    1.000
    C40      C        0.65870    0.76240    0.60690    1.000
    H35      H        0.58810    0.87910    0.57270    1.000
    C41      C        0.68350    0.68660    0.68520    1.000
    H36      H        0.67280    0.63460    0.83110    1.000
    C42      C        0.69160    0.77750    0.51130    1.000
    H37      H        0.71720    0.63810    0.67510    1.000
    C43      C        0.70800    0.69310    0.44480    1.000
    H38      H        0.65500    0.82390    0.45430    1.000
    H39      H        0.70090    0.63310    0.47890    1.000
    C44      C        0.65850    0.69510    0.31220    1.000
    N8       N        0.67450    0.62390    0.25370    1.000
    O4       O        0.60990    0.76050    0.26060    1.000
    C45      C        0.64740    0.62290    0.12530    1.000
    H40      H        0.70230    0.57590    0.29360    1.000
    C46      C        0.57100    0.55930    0.06090    1.000
    H41      H        0.69630    0.60310    0.10760    1.000
    H42      H        0.63210    0.68640    0.09550    1.000
    C47      C        0.56940    0.50480    0.96760    1.000
    C48      C        0.49990    0.55350    0.09230    1.000
    H43      H        0.61590    0.50760    0.94470    1.000
    H44      H        0.49930    0.58960    0.15490    1.000
    N9       N        0.08120    0.67030    0.21760    1.000
    C49      C        0.10810    0.74310    0.29270    1.000
    C50      C        0.10690    0.67030    0.12640    1.000
    C51      C        0.15720    0.81520    0.27830    1.000
    H45      H        0.09270    0.74480    0.35730    1.000
    C52      C        0.15870    0.73760    0.10690    1.000
    H46      H        0.08810    0.62090    0.07270    1.000
    C53      C        0.18350    0.81340    0.18520    1.000
    H47      H        0.17280    0.86540    0.33110    1.000
    C54      C        0.19160    0.72250    0.01130    1.000
    H48      H        0.21720    0.86190    0.17510    1.000
    C55      C        0.20800    0.80690    0.94480    1.000
    H49      H        0.15500    0.67610    0.95430    1.000
    H50      H        0.20090    0.86690    0.97890    1.000
    C56      C        0.15850    0.80490    0.81220    1.000
    N10      N        0.17450    0.87610    0.75370    1.000
    O5       O        0.10990    0.73950    0.76060    1.000
    C57      C        0.14740    0.87710    0.62530    1.000
    H51      H        0.20230    0.92410    0.79360    1.000
    C58      C        0.07100    0.94070    0.56090    1.000
    H52      H        0.19630    0.89690    0.60760    1.000
    H53      H        0.13210    0.81360    0.59550    1.000
    C59      C        0.06940    0.99520    0.46760    1.000
    C60      C        0.99990    0.94650    0.59230    1.000
    H54      H        0.11590    0.99240    0.44470    1.000
    H55      H        0.99930    0.91040    0.65490    1.000
    N11      N        0.58120    0.17030    0.21760    1.000
    C61      C        0.60810    0.24310    0.29270    1.000
    C62      C        0.60690    0.17030    0.12640    1.000
    C63      C        0.65720    0.31520    0.27830    1.000
    H56      H        0.59270    0.24480    0.35730    1.000
    C64      C        0.65870    0.23760    0.10690    1.000
    H57      H        0.58810    0.12090    0.07270    1.000
    C65      C        0.68350    0.31340    0.18520    1.000
    H58      H        0.67280    0.36540    0.33110    1.000
    C66      C        0.69160    0.22250    0.01130    1.000
    H59      H        0.71720    0.36190    0.17510    1.000
    C67      C        0.70800    0.30690    0.94480    1.000
    H60      H        0.65500    0.17610    0.95430    1.000
    H61      H        0.70090    0.36690    0.97890    1.000
    C68      C        0.65850    0.30490    0.81220    1.000
    N12      N        0.67450    0.37610    0.75370    1.000
    O6       O        0.60990    0.23950    0.76060    1.000
    C69      C        0.64740    0.37710    0.62530    1.000
    H62      H        0.70230    0.42410    0.79360    1.000
    C70      C        0.57100    0.44070    0.56090    1.000
    H63      H        0.69630    0.39690    0.60760    1.000
    H64      H        0.63210    0.31360    0.59550    1.000
    C71      C        0.56940    0.49520    0.46760    1.000
    C72      C        0.49990    0.44650    0.59230    1.000
    H65      H        0.61590    0.49240    0.44470    1.000
    H66      H        0.49930    0.41040    0.65490    1.000
    N13      N        0.91880    0.67030    0.28240    1.000
    C73      C        0.89190    0.74310    0.20730    1.000
    C74      C        0.89310    0.67030    0.37360    1.000
    C75      C        0.84280    0.81520    0.22170    1.000
    H67      H        0.90730    0.74480    0.14270    1.000
    C76      C        0.84130    0.73760    0.39310    1.000
    H68      H        0.91190    0.62090    0.42730    1.000
    C77      C        0.81650    0.81340    0.31480    1.000
    H69      H        0.82720    0.86540    0.16890    1.000
    C78      C        0.80840    0.72250    0.48870    1.000
    H70      H        0.78280    0.86190    0.32490    1.000
    C79      C        0.79200    0.80690    0.55520    1.000
    H71      H        0.84500    0.67610    0.54570    1.000
    H72      H        0.79910    0.86690    0.52110    1.000
    C80      C        0.84150    0.80490    0.68780    1.000
    N14      N        0.82550    0.87610    0.74630    1.000
    O7       O        0.89010    0.73950    0.73940    1.000
    C81      C        0.85260    0.87710    0.87470    1.000
    H73      H        0.79770    0.92410    0.70640    1.000
    C82      C        0.92900    0.94070    0.93910    1.000
    H74      H        0.80370    0.89690    0.89240    1.000
    H75      H        0.86790    0.81360    0.90450    1.000
    C83      C        0.93060    0.99520    0.03240    1.000
    C84      C        0.00010    0.94650    0.90770    1.000
    H76      H        0.88410    0.99240    0.05530    1.000
    H77      H        0.00070    0.91040    0.84510    1.000
    N15      N        0.41880    0.17030    0.28240    1.000
    C85      C        0.39190    0.24310    0.20730    1.000
    C86      C        0.39310    0.17030    0.37360    1.000
    C87      C        0.34280    0.31520    0.22170    1.000
    H78      H        0.40730    0.24480    0.14270    1.000
    C88      C        0.34130    0.23760    0.39310    1.000
    H79      H        0.41190    0.12090    0.42730    1.000
    C89      C        0.31650    0.31340    0.31480    1.000
    H80      H        0.32720    0.36540    0.16890    1.000
    C90      C        0.30840    0.22250    0.48870    1.000
    H81      H        0.28280    0.36190    0.32490    1.000
    C91      C        0.29200    0.30690    0.55520    1.000
    H82      H        0.34500    0.17610    0.54570    1.000
    H83      H        0.29910    0.36690    0.52110    1.000
    C92      C        0.34150    0.30490    0.68780    1.000
    N16      N        0.32550    0.37610    0.74630    1.000
    O8       O        0.39010    0.23950    0.73940    1.000
    C93      C        0.35260    0.37710    0.87470    1.000
    H84      H        0.29770    0.42410    0.70640    1.000
    C94      C        0.42900    0.44070    0.93910    1.000
    H85      H        0.30370    0.39690    0.89240    1.000
    H86      H        0.36790    0.31360    0.90450    1.000
    C95      C        0.43060    0.49520    0.03240    1.000
    C96      C        0.50010    0.44650    0.90770    1.000
    H87      H        0.38410    0.49240    0.05530    1.000
    H88      H        0.50070    0.41040    0.84510    1.000
    Cd1      Cd       0.00000    0.45114    0.75000    1.000
    Cd2      Cd       0.50000    0.95114    0.75000    1.000
    Cd3      Cd       0.00000    0.54886    0.25000    1.000
    Cd4      Cd       0.50000    0.04886    0.25000    1.000
