# CIF file generated by openbabel 3.1.0, see https://openbabel.org
data_I
_chemical_name_common 'image0'
_cell_length_a 22.093
_cell_length_b 13.904
_cell_length_c 14.23
_cell_angle_alpha 90
_cell_angle_beta 98.431
_cell_angle_gamma 90
_space_group_name_H-M_alt 'P 1'
_space_group_name_Hall 'P 1'
loop_
    _symmetry_equiv_pos_as_xyz
    x,y,z
loop_
    _atom_site_label
    _atom_site_type_symbol
    _atom_site_fract_x
    _atom_site_fract_y
    _atom_site_fract_z
    _atom_site_occupancy
    Ga1      Ga       0.41649    0.59588    0.49217    1.000
    Ga2      Ga       0.33742    0.70145    0.08604    1.000
    Ga3      Ga       0.25552    0.61060    0.43993    1.000
    Ga4      Ga       0.33987    0.39777    0.30601    1.000
    P1       P        0.44220    0.38044    0.48348    1.000
    P2       P        0.26344    0.89052    0.05925    1.000
    P3       P        0.34371    0.61853    0.29360    1.000
    P4       P        0.32839    0.71385    0.60949    1.000
    F1       F        0.33218    0.53482    0.46955    1.000
    O1       O        0.27130    0.66090    0.56170    1.000
    O2       O        0.28570    0.99420    0.06900    1.000
    O3       O        0.38581    0.68510    0.56850    1.000
    O4       O        0.22416    0.86160    0.13440    1.000
    O5       O        0.40329    0.62110    0.36310    1.000
    O6       O        0.44238    0.47600    0.53640    1.000
    O7       O        0.32838    0.51680    0.25440    1.000
    O8       O        0.35423    0.68410    0.21140    1.000
    O9       O        0.22850    0.87190    0.95950    1.000
    O10      O        0.32175    0.82980    0.07250    1.000
    O11      O        0.40443    0.30550    0.52860    1.000
    O12      O        0.28954    0.65830    0.33780    1.000
    O13      O        0.41419    0.39160    0.37880    1.000
    O14      O        0.32024    0.82280    0.59500    1.000
    O15      O        0.50646    0.34180    0.48760    1.000
    O16      O        0.33800    0.69440    0.71610    1.000
    Ga5      Ga       0.91649    0.09588    0.49217    1.000
    Ga6      Ga       0.83742    0.20145    0.08604    1.000
    Ga7      Ga       0.75552    0.11060    0.43993    1.000
    Ga8      Ga       0.83987    0.89777    0.30601    1.000
    P5       P        0.94220    0.88044    0.48348    1.000
    P6       P        0.76344    0.39052    0.05925    1.000
    P7       P        0.84371    0.11853    0.29360    1.000
    P8       P        0.82839    0.21385    0.60949    1.000
    F2       F        0.83218    0.03482    0.46955    1.000
    O17      O        0.77130    0.16090    0.56170    1.000
    O18      O        0.78570    0.49420    0.06900    1.000
    O19      O        0.88581    0.18510    0.56850    1.000
    O20      O        0.72416    0.36160    0.13440    1.000
    O21      O        0.90329    0.12110    0.36310    1.000
    O22      O        0.94238    0.97600    0.53640    1.000
    O23      O        0.82838    0.01680    0.25440    1.000
    O24      O        0.85423    0.18410    0.21140    1.000
    O25      O        0.72850    0.37190    0.95950    1.000
    O26      O        0.82175    0.32980    0.07250    1.000
    O27      O        0.90443    0.80550    0.52860    1.000
    O28      O        0.78954    0.15830    0.33780    1.000
    O29      O        0.91419    0.89160    0.37880    1.000
    O30      O        0.82024    0.32280    0.59500    1.000
    O31      O        0.00646    0.84180    0.48760    1.000
    O32      O        0.83800    0.19440    0.71610    1.000
    Ga9      Ga       0.58351    0.59588    0.00783    1.000
    Ga10     Ga       0.66258    0.70145    0.41396    1.000
    Ga11     Ga       0.74448    0.61060    0.06007    1.000
    Ga12     Ga       0.66013    0.39777    0.19399    1.000
    P9       P        0.55780    0.38044    0.01652    1.000
    P10      P        0.73656    0.89052    0.44075    1.000
    P11      P        0.65629    0.61853    0.20640    1.000
    P12      P        0.67161    0.71385    0.89051    1.000
    F3       F        0.66782    0.53482    0.03045    1.000
    O33      O        0.72870    0.66090    0.93830    1.000
    O34      O        0.71430    0.99420    0.43100    1.000
    O35      O        0.61419    0.68510    0.93150    1.000
    O36      O        0.77584    0.86160    0.36560    1.000
    O37      O        0.59671    0.62110    0.13690    1.000
    O38      O        0.55762    0.47600    0.96360    1.000
    O39      O        0.67162    0.51680    0.24560    1.000
    O40      O        0.64577    0.68410    0.28860    1.000
    O41      O        0.77150    0.87190    0.54050    1.000
    O42      O        0.67825    0.82980    0.42750    1.000
    O43      O        0.59557    0.30550    0.97140    1.000
    O44      O        0.71046    0.65830    0.16220    1.000
    O45      O        0.58581    0.39160    0.12120    1.000
    O46      O        0.67976    0.82280    0.90500    1.000
    O47      O        0.49354    0.34180    0.01240    1.000
    O48      O        0.66200    0.69440    0.78390    1.000
    Ga13     Ga       0.08351    0.09588    0.00783    1.000
    Ga14     Ga       0.16258    0.20145    0.41396    1.000
    Ga15     Ga       0.24448    0.11060    0.06007    1.000
    Ga16     Ga       0.16013    0.89777    0.19399    1.000
    P13      P        0.05780    0.88044    0.01652    1.000
    P14      P        0.23656    0.39052    0.44075    1.000
    P15      P        0.15629    0.11853    0.20640    1.000
    P16      P        0.17161    0.21385    0.89051    1.000
    F4       F        0.16782    0.03482    0.03045    1.000
    O49      O        0.22870    0.16090    0.93830    1.000
    O50      O        0.21430    0.49420    0.43100    1.000
    O51      O        0.11419    0.18510    0.93150    1.000
    O52      O        0.27584    0.36160    0.36560    1.000
    O53      O        0.09671    0.12110    0.13690    1.000
    O54      O        0.05762    0.97600    0.96360    1.000
    O55      O        0.17162    0.01680    0.24560    1.000
    O56      O        0.14577    0.18410    0.28860    1.000
    O57      O        0.27150    0.37190    0.54050    1.000
    O58      O        0.17825    0.32980    0.42750    1.000
    O59      O        0.09557    0.80550    0.97140    1.000
    O60      O        0.21046    0.15830    0.16220    1.000
    O61      O        0.08581    0.89160    0.12120    1.000
    O62      O        0.17976    0.32280    0.90500    1.000
    O63      O        0.99354    0.84180    0.01240    1.000
    O64      O        0.16200    0.19440    0.78390    1.000
    Ga17     Ga       0.58351    0.40412    0.50783    1.000
    Ga18     Ga       0.66258    0.29855    0.91396    1.000
    Ga19     Ga       0.74448    0.38940    0.56007    1.000
    Ga20     Ga       0.66013    0.60223    0.69399    1.000
    P17      P        0.55780    0.61956    0.51652    1.000
    P18      P        0.73656    0.10948    0.94075    1.000
    P19      P        0.65629    0.38147    0.70640    1.000
    P20      P        0.67161    0.28615    0.39051    1.000
    F5       F        0.66782    0.46518    0.53045    1.000
    O65      O        0.72870    0.33910    0.43830    1.000
    O66      O        0.71430    0.00580    0.93100    1.000
    O67      O        0.61419    0.31490    0.43150    1.000
    O68      O        0.77584    0.13840    0.86560    1.000
    O69      O        0.59671    0.37890    0.63690    1.000
    O70      O        0.55762    0.52400    0.46360    1.000
    O71      O        0.67162    0.48320    0.74560    1.000
    O72      O        0.64577    0.31590    0.78860    1.000
    O73      O        0.77150    0.12810    0.04050    1.000
    O74      O        0.67825    0.17020    0.92750    1.000
    O75      O        0.59557    0.69450    0.47140    1.000
    O76      O        0.71046    0.34170    0.66220    1.000
    O77      O        0.58581    0.60840    0.62120    1.000
    O78      O        0.67976    0.17720    0.40500    1.000
    O79      O        0.49354    0.65820    0.51240    1.000
    O80      O        0.66200    0.30560    0.28390    1.000
    Ga21     Ga       0.08351    0.90412    0.50783    1.000
    Ga22     Ga       0.16258    0.79855    0.91396    1.000
    Ga23     Ga       0.24448    0.88940    0.56007    1.000
    Ga24     Ga       0.16013    0.10223    0.69399    1.000
    P21      P        0.05780    0.11956    0.51652    1.000
    P22      P        0.23656    0.60948    0.94075    1.000
    P23      P        0.15629    0.88147    0.70640    1.000
    P24      P        0.17161    0.78615    0.39051    1.000
    F6       F        0.16782    0.96518    0.53045    1.000
    O81      O        0.22870    0.83910    0.43830    1.000
    O82      O        0.21430    0.50580    0.93100    1.000
    O83      O        0.11419    0.81490    0.43150    1.000
    O84      O        0.27584    0.63840    0.86560    1.000
    O85      O        0.09671    0.87890    0.63690    1.000
    O86      O        0.05762    0.02400    0.46360    1.000
    O87      O        0.17162    0.98320    0.74560    1.000
    O88      O        0.14577    0.81590    0.78860    1.000
    O89      O        0.27150    0.62810    0.04050    1.000
    O90      O        0.17825    0.67020    0.92750    1.000
    O91      O        0.09557    0.19450    0.47140    1.000
    O92      O        0.21046    0.84170    0.66220    1.000
    O93      O        0.08581    0.10840    0.62120    1.000
    O94      O        0.17976    0.67720    0.40500    1.000
    O95      O        0.99354    0.15820    0.51240    1.000
    O96      O        0.16200    0.80560    0.28390    1.000
    Ga25     Ga       0.41649    0.40412    0.99217    1.000
    Ga26     Ga       0.33742    0.29855    0.58604    1.000
    Ga27     Ga       0.25552    0.38940    0.93993    1.000
    Ga28     Ga       0.33987    0.60223    0.80601    1.000
    P25      P        0.44220    0.61956    0.98348    1.000
    P26      P        0.26344    0.10948    0.55925    1.000
    P27      P        0.34371    0.38147    0.79360    1.000
    P28      P        0.32839    0.28615    0.10949    1.000
    F7       F        0.33218    0.46518    0.96955    1.000
    O97      O        0.27130    0.33910    0.06170    1.000
    O98      O        0.28570    0.00580    0.56900    1.000
    O99      O        0.38581    0.31490    0.06850    1.000
    O100     O        0.22416    0.13840    0.63440    1.000
    O101     O        0.40329    0.37890    0.86310    1.000
    O102     O        0.44238    0.52400    0.03640    1.000
    O103     O        0.32838    0.48320    0.75440    1.000
    O104     O        0.35423    0.31590    0.71140    1.000
    O105     O        0.22850    0.12810    0.45950    1.000
    O106     O        0.32175    0.17020    0.57250    1.000
    O107     O        0.40443    0.69450    0.02860    1.000
    O108     O        0.28954    0.34170    0.83780    1.000
    O109     O        0.41419    0.60840    0.87880    1.000
    O110     O        0.32024    0.17720    0.09500    1.000
    O111     O        0.50646    0.65820    0.98760    1.000
    O112     O        0.33800    0.30560    0.21610    1.000
    Ga29     Ga       0.91649    0.90412    0.99217    1.000
    Ga30     Ga       0.83742    0.79855    0.58604    1.000
    Ga31     Ga       0.75552    0.88940    0.93993    1.000
    Ga32     Ga       0.83987    0.10223    0.80601    1.000
    P29      P        0.94220    0.11956    0.98348    1.000
    P30      P        0.76344    0.60948    0.55925    1.000
    P31      P        0.84371    0.88147    0.79360    1.000
    P32      P        0.82839    0.78615    0.10949    1.000
    F8       F        0.83218    0.96518    0.96955    1.000
    O113     O        0.77130    0.83910    0.06170    1.000
    O114     O        0.78570    0.50580    0.56900    1.000
    O115     O        0.88581    0.81490    0.06850    1.000
    O116     O        0.72416    0.63840    0.63440    1.000
    O117     O        0.90329    0.87890    0.86310    1.000
    O118     O        0.94238    0.02400    0.03640    1.000
    O119     O        0.82838    0.98320    0.75440    1.000
    O120     O        0.85423    0.81590    0.71140    1.000
    O121     O        0.72850    0.62810    0.45950    1.000
    O122     O        0.82175    0.67020    0.57250    1.000
    O123     O        0.90443    0.19450    0.02860    1.000
    O124     O        0.78954    0.84170    0.83780    1.000
    O125     O        0.91419    0.10840    0.87880    1.000
    O126     O        0.82024    0.67720    0.09500    1.000
    O127     O        0.00646    0.15820    0.98760    1.000
    O128     O        0.83800    0.80560    0.21610    1.000
