# CIF file generated by openbabel 3.1.0, see https://openbabel.org
data_I
_chemical_name_common 'image0'
_cell_length_a 14.512
_cell_length_b 14.512
_cell_length_c 8.914
_cell_angle_alpha 90
_cell_angle_beta 90
_cell_angle_gamma 90
_space_group_name_H-M_alt 'P 1'
_space_group_name_Hall 'P 1'
loop_
    _symmetry_equiv_pos_as_xyz
    x,y,z
loop_
    _atom_site_label
    _atom_site_type_symbol
    _atom_site_fract_x
    _atom_site_fract_y
    _atom_site_fract_z
    _atom_site_occupancy
    Zn1      Zn       0.50381    0.63629    0.38993    1.000
    Zn2      Zn       0.50293    0.87246    0.70778    1.000
    Zn3      Zn       0.36657    0.01407    0.20939    1.000
    Zn4      Zn       0.13088    0.02126    0.88721    1.000
    P1       P        0.63883    0.49653    0.25792    1.000
    P2       P        0.34801    0.99071    0.85690    1.000
    P3       P        0.48947    0.85666    0.35490    1.000
    P4       P        0.14069    0.02683    0.24212    1.000
    O1       O        0.38010    0.91260    0.75390    1.000
    O2       O        0.53650    0.87400    0.50350    1.000
    O3       O        0.40690    0.07600    0.83850    1.000
    O4       O        0.34930    0.95690    0.01740    1.000
    O5       O        0.39930    0.91090    0.34210    1.000
    O6       O        0.25010    0.01300    0.80900    1.000
    O7       O        0.60740    0.59650    0.26780    1.000
    O8       O        0.74040    0.49020    0.23480    1.000
    O9       O        0.60910    0.44590    0.40540    1.000
    O10      O        0.59050    0.44500    0.13060    1.000
    O11      O        0.55420    0.88140    0.22560    1.000
    O12      O        0.46050    0.75540    0.33840    1.000
    O13      O        0.24120    0.04910    0.26660    1.000
    O14      O        0.08240    0.06830    0.36990    1.000
    O15      O        0.10330    0.07100    0.09340    1.000
    O16      O        0.12300    0.92310    0.22870    1.000
    Zn5      Zn       0.49619    0.36371    0.38993    1.000
    Zn6      Zn       0.49707    0.12754    0.70778    1.000
    Zn7      Zn       0.63343    0.98593    0.20939    1.000
    Zn8      Zn       0.86912    0.97874    0.88721    1.000
    P5       P        0.36117    0.50347    0.25792    1.000
    P6       P        0.65199    0.00929    0.85690    1.000
    P7       P        0.51053    0.14334    0.35490    1.000
    P8       P        0.85931    0.97317    0.24212    1.000
    O17      O        0.61990    0.08740    0.75390    1.000
    O18      O        0.46350    0.12600    0.50350    1.000
    O19      O        0.59310    0.92400    0.83850    1.000
    O20      O        0.65070    0.04310    0.01740    1.000
    O21      O        0.60070    0.08910    0.34210    1.000
    O22      O        0.74990    0.98700    0.80900    1.000
    O23      O        0.39260    0.40350    0.26780    1.000
    O24      O        0.25960    0.50980    0.23480    1.000
    O25      O        0.39090    0.55410    0.40540    1.000
    O26      O        0.40950    0.55500    0.13060    1.000
    O27      O        0.44580    0.11860    0.22560    1.000
    O28      O        0.53950    0.24460    0.33840    1.000
    O29      O        0.75880    0.95090    0.26660    1.000
    O30      O        0.91760    0.93170    0.36990    1.000
    O31      O        0.89670    0.92900    0.09340    1.000
    O32      O        0.87700    0.07690    0.22870    1.000
    Zn9      Zn       0.63629    0.49619    0.61007    1.000
    Zn10     Zn       0.87246    0.49707    0.29222    1.000
    Zn11     Zn       0.01407    0.63343    0.79061    1.000
    Zn12     Zn       0.02126    0.86912    0.11279    1.000
    P9       P        0.49653    0.36117    0.74208    1.000
    P10      P        0.99071    0.65199    0.14310    1.000
    P11      P        0.85666    0.51053    0.64510    1.000
    P12      P        0.02683    0.85931    0.75788    1.000
    O33      O        0.91260    0.61990    0.24610    1.000
    O34      O        0.87400    0.46350    0.49650    1.000
    O35      O        0.07600    0.59310    0.16150    1.000
    O36      O        0.95690    0.65070    0.98260    1.000
    O37      O        0.91090    0.60070    0.65790    1.000
    O38      O        0.01300    0.74990    0.19100    1.000
    O39      O        0.59650    0.39260    0.73220    1.000
    O40      O        0.49020    0.25960    0.76520    1.000
    O41      O        0.44590    0.39090    0.59460    1.000
    O42      O        0.44500    0.40950    0.86940    1.000
    O43      O        0.88140    0.44580    0.77440    1.000
    O44      O        0.75540    0.53950    0.66160    1.000
    O45      O        0.04910    0.75880    0.73340    1.000
    O46      O        0.06830    0.91760    0.63010    1.000
    O47      O        0.07100    0.89670    0.90660    1.000
    O48      O        0.92310    0.87700    0.77130    1.000
    Zn13     Zn       0.36371    0.50381    0.61007    1.000
    Zn14     Zn       0.12754    0.50293    0.29222    1.000
    Zn15     Zn       0.98593    0.36657    0.79061    1.000
    Zn16     Zn       0.97874    0.13088    0.11279    1.000
    P13      P        0.50347    0.63883    0.74208    1.000
    P14      P        0.00929    0.34801    0.14310    1.000
    P15      P        0.14334    0.48947    0.64510    1.000
    P16      P        0.97317    0.14069    0.75788    1.000
    O49      O        0.08740    0.38010    0.24610    1.000
    O50      O        0.12600    0.53650    0.49650    1.000
    O51      O        0.92400    0.40690    0.16150    1.000
    O52      O        0.04310    0.34930    0.98260    1.000
    O53      O        0.08910    0.39930    0.65790    1.000
    O54      O        0.98700    0.25010    0.19100    1.000
    O55      O        0.40350    0.60740    0.73220    1.000
    O56      O        0.50980    0.74040    0.76520    1.000
    O57      O        0.55410    0.60910    0.59460    1.000
    O58      O        0.55500    0.59050    0.86940    1.000
    O59      O        0.11860    0.55420    0.77440    1.000
    O60      O        0.24460    0.46050    0.66160    1.000
    O61      O        0.95090    0.24120    0.73340    1.000
    O62      O        0.93170    0.08240    0.63010    1.000
    O63      O        0.92900    0.10330    0.90660    1.000
    O64      O        0.07690    0.12300    0.77130    1.000
    Zn17     Zn       0.00000    0.00000    0.50000    1.000
    Zn18     Zn       0.50000    0.50000    0.00000    1.000
