# CIF file generated by openbabel 3.1.0, see https://openbabel.org
data_I
_chemical_name_common 'image0'
_cell_length_a 12.0047
_cell_length_b 10.9563
_cell_length_c 21.0767
_cell_angle_alpha 90
_cell_angle_beta 106.389
_cell_angle_gamma 90
_space_group_name_H-M_alt 'P 1'
_space_group_name_Hall 'P 1'
loop_
    _symmetry_equiv_pos_as_xyz
    x,y,z
loop_
    _atom_site_label
    _atom_site_type_symbol
    _atom_site_fract_x
    _atom_site_fract_y
    _atom_site_fract_z
    _atom_site_occupancy
    Cd1      Cd       0.63605    0.68064    0.96029    1.000
    Ca1      Ca       0.35622    0.55455    0.87272    1.000
    O1       O        0.62720    0.76880    0.86510    1.000
    O2       O        0.43810    0.72430    0.83504    1.000
    O3       O        0.22040    0.88120    0.59088    1.000
    O4       O        0.30970    0.77360    0.53028    1.000
    O5       O        0.73190    0.84950    0.65890    1.000
    O6       O        0.96340    0.96860    0.60697    1.000
    O7       O        0.78190    0.00040    0.54950    1.000
    O8       O        0.04170    0.67710    0.50671    1.000
    O9       O        0.94410    0.84870    0.47812    1.000
    C1       C        0.52830    0.76240    0.82360    1.000
    C2       C        0.52270    0.79970    0.75384    1.000
    C3       C        0.41880    0.80680    0.70410    1.000
    H1       H        0.34890    0.80050    0.71460    1.000
    C4       C        0.41820    0.82310    0.63906    1.000
    C5       C        0.52310    0.83290    0.62320    1.000
    H2       H        0.52340    0.83990    0.57930    1.000
    C6       C        0.62580    0.83220    0.67280    1.000
    C7       C        0.62730    0.81650    0.73820    1.000
    H3       H        0.69730    0.81700    0.77140    1.000
    C8       C        0.30780    0.82590    0.58300    1.000
    C9       C        0.76560    0.76040    0.62130    1.000
    C10      C        0.83630    0.79860    0.58290    1.000
    C11      C        0.88160    0.71110    0.54930    1.000
    C12      C        0.85740    0.58810    0.55460    1.000
    H4       H        0.89030    0.52980    0.53330    1.000
    C13      C        0.78410    0.55260    0.59170    1.000
    H5       H        0.76570    0.47060    0.59390    1.000
    C14      C        0.73840    0.63830    0.62530    1.000
    H6       H        0.68970    0.61420    0.65030    1.000
    C15      C        0.86280    0.93200    0.57950    1.000
    C16      C        0.95960    0.74700    0.50840    1.000
    Cd2      Cd       0.86395    0.18064    0.53971    1.000
    Ca2      Ca       0.14378    0.05455    0.62728    1.000
    O10      O        0.87280    0.26880    0.63490    1.000
    O11      O        0.06190    0.22430    0.66496    1.000
    O12      O        0.27960    0.38120    0.90912    1.000
    O13      O        0.19030    0.27360    0.96972    1.000
    O14      O        0.76810    0.34950    0.84110    1.000
    O15      O        0.53660    0.46860    0.89303    1.000
    O16      O        0.71810    0.50040    0.95050    1.000
    O17      O        0.45830    0.17710    0.99329    1.000
    O18      O        0.55590    0.34870    0.02188    1.000
    C17      C        0.97170    0.26240    0.67640    1.000
    C18      C        0.97730    0.29970    0.74616    1.000
    C19      C        0.08120    0.30680    0.79590    1.000
    H7       H        0.15110    0.30050    0.78540    1.000
    C20      C        0.08180    0.32310    0.86094    1.000
    C21      C        0.97690    0.33290    0.87680    1.000
    H8       H        0.97660    0.33990    0.92070    1.000
    C22      C        0.87420    0.33220    0.82720    1.000
    C23      C        0.87270    0.31650    0.76180    1.000
    H9       H        0.80270    0.31700    0.72860    1.000
    C24      C        0.19220    0.32590    0.91700    1.000
    C25      C        0.73440    0.26040    0.87870    1.000
    C26      C        0.66370    0.29860    0.91710    1.000
    C27      C        0.61840    0.21110    0.95070    1.000
    C28      C        0.64260    0.08810    0.94540    1.000
    H10      H        0.60970    0.02980    0.96670    1.000
    C29      C        0.71590    0.05260    0.90830    1.000
    H11      H        0.73430    0.97060    0.90610    1.000
    C30      C        0.76160    0.13830    0.87470    1.000
    H12      H        0.81030    0.11420    0.84970    1.000
    C31      C        0.63720    0.43200    0.92050    1.000
    C32      C        0.54040    0.24700    0.99160    1.000
    Cd3      Cd       0.36395    0.31936    0.03971    1.000
    Ca3      Ca       0.64378    0.44545    0.12728    1.000
    O19      O        0.37280    0.23120    0.13490    1.000
    O20      O        0.56190    0.27570    0.16496    1.000
    O21      O        0.77960    0.11880    0.40912    1.000
    O22      O        0.69030    0.22640    0.46972    1.000
    O23      O        0.26810    0.15050    0.34110    1.000
    O24      O        0.03660    0.03140    0.39303    1.000
    O25      O        0.21810    0.99960    0.45050    1.000
    O26      O        0.95830    0.32290    0.49329    1.000
    O27      O        0.05590    0.15130    0.52188    1.000
    C33      C        0.47170    0.23760    0.17640    1.000
    C34      C        0.47730    0.20030    0.24616    1.000
    C35      C        0.58120    0.19320    0.29590    1.000
    H13      H        0.65110    0.19950    0.28540    1.000
    C36      C        0.58180    0.17690    0.36094    1.000
    C37      C        0.47690    0.16710    0.37680    1.000
    H14      H        0.47660    0.16010    0.42070    1.000
    C38      C        0.37420    0.16780    0.32720    1.000
    C39      C        0.37270    0.18350    0.26180    1.000
    H15      H        0.30270    0.18300    0.22860    1.000
    C40      C        0.69220    0.17410    0.41700    1.000
    C41      C        0.23440    0.23960    0.37870    1.000
    C42      C        0.16370    0.20140    0.41710    1.000
    C43      C        0.11840    0.28890    0.45070    1.000
    C44      C        0.14260    0.41190    0.44540    1.000
    H16      H        0.10970    0.47020    0.46670    1.000
    C45      C        0.21590    0.44740    0.40830    1.000
    H17      H        0.23430    0.52940    0.40610    1.000
    C46      C        0.26160    0.36170    0.37470    1.000
    H18      H        0.31030    0.38580    0.34970    1.000
    C47      C        0.13720    0.06800    0.42050    1.000
    C48      C        0.04040    0.25300    0.49160    1.000
    Cd4      Cd       0.13605    0.81936    0.46029    1.000
    Ca4      Ca       0.85622    0.94545    0.37272    1.000
    O28      O        0.12720    0.73120    0.36510    1.000
    O29      O        0.93810    0.77570    0.33504    1.000
    O30      O        0.72040    0.61880    0.09088    1.000
    O31      O        0.80970    0.72640    0.03028    1.000
    O32      O        0.23190    0.65050    0.15890    1.000
    O33      O        0.46340    0.53140    0.10697    1.000
    O34      O        0.28190    0.49960    0.04950    1.000
    O35      O        0.54170    0.82290    0.00671    1.000
    O36      O        0.44410    0.65130    0.97812    1.000
    C49      C        0.02830    0.73760    0.32360    1.000
    C50      C        0.02270    0.70030    0.25384    1.000
    C51      C        0.91880    0.69320    0.20410    1.000
    H19      H        0.84890    0.69950    0.21460    1.000
    C52      C        0.91820    0.67690    0.13906    1.000
    C53      C        0.02310    0.66710    0.12320    1.000
    H20      H        0.02340    0.66010    0.07930    1.000
    C54      C        0.12580    0.66780    0.17280    1.000
    C55      C        0.12730    0.68350    0.23820    1.000
    H21      H        0.19730    0.68300    0.27140    1.000
    C56      C        0.80780    0.67410    0.08300    1.000
    C57      C        0.26560    0.73960    0.12130    1.000
    C58      C        0.33630    0.70140    0.08290    1.000
    C59      C        0.38160    0.78890    0.04930    1.000
    C60      C        0.35740    0.91190    0.05460    1.000
    H22      H        0.39030    0.97020    0.03330    1.000
    C61      C        0.28410    0.94740    0.09170    1.000
    H23      H        0.26570    0.02940    0.09390    1.000
    C62      C        0.23840    0.86170    0.12530    1.000
    H24      H        0.18970    0.88580    0.15030    1.000
    C63      C        0.36280    0.56800    0.07950    1.000
    C64      C        0.45960    0.75300    0.00840    1.000
