# CIF file generated by openbabel 3.1.0, see https://openbabel.org
data_I
_chemical_name_common 'image0'
_cell_length_a 9.721
_cell_length_b 10.9804
_cell_length_c 11.479
_cell_angle_alpha 97.966
_cell_angle_beta 96.212
_cell_angle_gamma 98.244
_space_group_name_H-M_alt 'P 1'
_space_group_name_Hall 'P 1'
loop_
    _symmetry_equiv_pos_as_xyz
    x,y,z
loop_
    _atom_site_label
    _atom_site_type_symbol
    _atom_site_fract_x
    _atom_site_fract_y
    _atom_site_fract_z
    _atom_site_occupancy
    Co1      Co       0.40233    0.11669    0.88896    1.000
    O1       O        0.51750    0.98740    0.83800    1.000
    O2       O        0.56590    0.83330    0.93280    1.000
    O3       O        0.27400    0.25940    0.86160    1.000
    O4       O        0.31580    0.13820    0.70910    1.000
    C1       C        0.53620    0.87810    0.84130    1.000
    C2       C        0.52550    0.79600    0.72410    1.000
    H1       H        0.51770    0.83210    0.65560    1.000
    C3       C        0.52650    0.67780    0.71340    1.000
    H2       H        0.53720    0.64510    0.78370    1.000
    C4       C        0.51290    0.58810    0.60270    1.000
    C5       C        0.50530    0.62430    0.49180    1.000
    H3       H        0.50900    0.70820    0.48540    1.000
    C6       C        0.50760    0.46260    0.60960    1.000
    H4       H        0.51280    0.43650    0.68340    1.000
    C7       C        0.26070    0.22600    0.75290    1.000
    C8       C        0.19500    0.32400    0.69800    1.000
    H5       H        0.20510    0.40430    0.74030    1.000
    C9       C        0.12000    0.29340    0.60020    1.000
    H6       H        0.10210    0.21270    0.55830    1.000
    C10      C        0.05380    0.39190    0.54210    1.000
    C11      C        0.94310    0.33280    0.45690    1.000
    H7       H        0.91540    0.24700    0.44890    1.000
    C12      C        0.87400    0.40170    0.38370    1.000
    H8       H        0.79990    0.36220    0.32670    1.000
    C13      C        0.91550    0.52980    0.39570    1.000
    C14      C        0.02620    0.58900    0.48090    1.000
    H9       H        0.05390    0.67470    0.48900    1.000
    C15      C        0.09530    0.52000    0.55420    1.000
    H10      H        0.16940    0.55960    0.61120    1.000
    C16      C        0.84210    0.60350    0.32110    1.000
    H11      H        0.80160    0.56450    0.24550    1.000
    C17      C        0.82800    0.71840    0.34400    1.000
    H12      H        0.86490    0.76270    0.41800    1.000
    N1       N        0.57890    0.25790    0.87940    1.000
    C18      C        0.66510    0.24860    0.79720    1.000
    H13      H        0.65370    0.17460    0.74420    1.000
    C19      C        0.76920    0.34210    0.78680    1.000
    H14      H        0.82600    0.33100    0.72730    1.000
    C20      C        0.79130    0.45370    0.86430    1.000
    C21      C        0.70060    0.46330    0.94800    1.000
    H15      H        0.70840    0.53650    0.00150    1.000
    C22      C        0.59860    0.36450    0.95220    1.000
    H16      H        0.53950    0.37330    0.01030    1.000
    C23      C        0.90540    0.55870    0.85550    1.000
    H17      H        0.98840    0.55010    0.90670    1.000
    H18      H        0.92780    0.54870    0.77480    1.000
    C24      C        0.87780    0.68090    0.88480    1.000
    H19      H        0.85000    0.68960    0.96380    1.000
    H20      H        0.79850    0.69150    0.83040    1.000
    N2       N        0.22390    0.97600    0.88940    1.000
    C25      C        0.99560    0.78450    0.88240    1.000
    C26      C        0.06860    0.79980    0.78560    1.000
    H21      H        0.03750    0.74850    0.71330    1.000
    C27      C        0.18560    0.88950    0.79540    1.000
    H22      H        0.23950    0.88900    0.73320    1.000
    C28      C        0.17180    0.95370    0.99000    1.000
    H23      H        0.21030    0.00400    0.06130    1.000
    C29      C        0.06220    0.85780    0.98990    1.000
    H24      H        0.03220    0.84160    0.06120    1.000
    C30      C        0.98210    0.87680    0.80950    1.000
    H25      H        0.89680    0.88010    0.76570    1.000
    C31      C        0.10130    0.96820    0.81370    1.000
    H26      H        0.09520    0.02830    0.76450    1.000
    C32      C        0.21490    0.89720    0.95610    1.000
    H27      H        0.29350    0.90100    0.01120    1.000
    C33      C        0.11030    0.80180    0.95510    1.000
    H28      H        0.12320    0.74410    0.00580    1.000
    Co2      Co       0.59767    0.88331    0.11104    1.000
    O5       O        0.48250    0.01260    0.16200    1.000
    O6       O        0.43410    0.16670    0.06720    1.000
    O7       O        0.72600    0.74060    0.13840    1.000
    O8       O        0.68420    0.86180    0.29090    1.000
    C34      C        0.46380    0.12190    0.15870    1.000
    C35      C        0.47450    0.20400    0.27590    1.000
    H29      H        0.48230    0.16790    0.34440    1.000
    C36      C        0.47350    0.32220    0.28660    1.000
    H30      H        0.46280    0.35490    0.21630    1.000
    C37      C        0.48710    0.41190    0.39730    1.000
    C38      C        0.49470    0.37570    0.50820    1.000
    H31      H        0.49100    0.29180    0.51460    1.000
    C39      C        0.49240    0.53740    0.39040    1.000
    H32      H        0.48720    0.56350    0.31660    1.000
    C40      C        0.73930    0.77400    0.24710    1.000
    C41      C        0.80500    0.67600    0.30200    1.000
    H33      H        0.79490    0.59570    0.25970    1.000
    C42      C        0.88000    0.70660    0.39980    1.000
    H34      H        0.89790    0.78730    0.44170    1.000
    C43      C        0.94620    0.60810    0.45790    1.000
    C44      C        0.05690    0.66720    0.54310    1.000
    H35      H        0.08460    0.75300    0.55110    1.000
    C45      C        0.12600    0.59830    0.61630    1.000
    H36      H        0.20010    0.63780    0.67330    1.000
    C46      C        0.08450    0.47020    0.60430    1.000
    C47      C        0.97380    0.41100    0.51910    1.000
    H37      H        0.94610    0.32530    0.51100    1.000
    C48      C        0.90470    0.48000    0.44580    1.000
    H38      H        0.83060    0.44040    0.38880    1.000
    C49      C        0.15790    0.39650    0.67890    1.000
    H39      H        0.19840    0.43550    0.75450    1.000
    C50      C        0.17200    0.28160    0.65600    1.000
    H40      H        0.13510    0.23730    0.58200    1.000
    N3       N        0.42110    0.74210    0.12060    1.000
    C51      C        0.33490    0.75140    0.20280    1.000
    H41      H        0.34630    0.82540    0.25580    1.000
    C52      C        0.23080    0.65790    0.21320    1.000
    H42      H        0.17400    0.66900    0.27270    1.000
    C53      C        0.20870    0.54630    0.13570    1.000
    C54      C        0.29940    0.53670    0.05200    1.000
    H43      H        0.29160    0.46350    0.99850    1.000
    C55      C        0.40140    0.63550    0.04780    1.000
    H44      H        0.46050    0.62670    0.98970    1.000
    C56      C        0.09460    0.44130    0.14450    1.000
    H45      H        0.01160    0.44990    0.09330    1.000
    H46      H        0.07220    0.45130    0.22520    1.000
    C57      C        0.12220    0.31910    0.11520    1.000
    H47      H        0.15000    0.31040    0.03620    1.000
    H48      H        0.20150    0.30850    0.16960    1.000
    N4       N        0.77610    0.02400    0.11060    1.000
    C58      C        0.00440    0.21550    0.11760    1.000
    C59      C        0.93140    0.20020    0.21440    1.000
    H49      H        0.96250    0.25150    0.28670    1.000
    C60      C        0.81440    0.11050    0.20460    1.000
    H50      H        0.76050    0.11100    0.26680    1.000
    C61      C        0.82820    0.04630    0.01000    1.000
    H51      H        0.78970    0.99600    0.93870    1.000
    C62      C        0.93780    0.14220    0.01010    1.000
    H52      H        0.96780    0.15840    0.93880    1.000
    C63      C        0.01790    0.12320    0.19050    1.000
    H53      H        0.10320    0.11990    0.23430    1.000
    C64      C        0.89870    0.03180    0.18630    1.000
    H54      H        0.90480    0.97170    0.23550    1.000
    C65      C        0.78510    0.10280    0.04390    1.000
    H55      H        0.70650    0.09900    0.98880    1.000
    C66      C        0.88970    0.19820    0.04490    1.000
    H56      H        0.87680    0.25590    0.99420    1.000
