# CIF file generated by openbabel 3.1.0, see https://openbabel.org
data_I
_chemical_name_common 'image0'
_cell_length_a 9.1768
_cell_length_b 10.9017
_cell_length_c 11.3961
_cell_angle_alpha 117.938
_cell_angle_beta 100.535
_cell_angle_gamma 98.517
_space_group_name_H-M_alt 'P 1'
_space_group_name_Hall 'P 1'
loop_
    _symmetry_equiv_pos_as_xyz
    x,y,z
loop_
    _atom_site_label
    _atom_site_type_symbol
    _atom_site_fract_x
    _atom_site_fract_y
    _atom_site_fract_z
    _atom_site_occupancy
    Zn1      Zn       0.30986    0.37463    0.37705    1.000
    O1       O        0.20340    0.39050    0.22520    1.000
    O2       O        0.24150    0.21370    0.40360    1.000
    O3       O        0.03980    0.50640    0.32690    1.000
    O4       O        0.03160    0.29100    0.42240    1.000
    N1       N        0.34730    0.55550    0.56040    1.000
    C1       C        0.93330    0.54910    0.10840    1.000
    H1       H        0.88840    0.58150    0.18050    1.000
    N2       N        0.23220    0.59670    0.61250    1.000
    N3       N        0.48240    0.64070    0.65530    1.000
    C2       C        0.13080    0.99810    0.45640    1.000
    H2       H        0.21970    0.99760    0.42820    1.000
    C3       C        0.11200    0.20950    0.42790    1.000
    C4       C        0.92300    0.10370    0.50990    1.000
    H3       H        0.87200    0.17360    0.51780    1.000
    C5       C        0.11380    0.42940    0.00140    1.000
    H4       H        0.18970    0.38160    0.00210    1.000
    C6       C        0.29550    0.71000    0.74140    1.000
    H5       H        0.24250    0.76070    0.80220    1.000
    C7       C        0.05350    0.10040    0.46440    1.000
    C8       C        0.09830    0.45690    0.23060    1.000
    C9       C        0.04870    0.47840    0.11100    1.000
    C10      C        0.45130    0.73770    0.76740    1.000
    H6       H        0.52350    0.81120    0.84900    1.000
    Zn2      Zn       0.69014    0.62537    0.62295    1.000
    O5       O        0.79660    0.60950    0.77480    1.000
    O6       O        0.75850    0.78630    0.59640    1.000
    O7       O        0.96020    0.49360    0.67310    1.000
    O8       O        0.96840    0.70900    0.57760    1.000
    N4       N        0.65270    0.44450    0.43960    1.000
    C11      C        0.06670    0.45090    0.89160    1.000
    H7       H        0.11160    0.41850    0.81950    1.000
    N5       N        0.76780    0.40330    0.38750    1.000
    N6       N        0.51760    0.35930    0.34470    1.000
    C12      C        0.86920    0.00190    0.54360    1.000
    H8       H        0.78030    0.00240    0.57180    1.000
    C13      C        0.88800    0.79050    0.57210    1.000
    C14      C        0.07700    0.89630    0.49010    1.000
    H9       H        0.12800    0.82640    0.48220    1.000
    C15      C        0.88620    0.57060    0.99860    1.000
    H10      H        0.81030    0.61840    0.99790    1.000
    C16      C        0.70450    0.29000    0.25860    1.000
    H11      H        0.75750    0.23930    0.19780    1.000
    C17      C        0.94650    0.89960    0.53560    1.000
    C18      C        0.90170    0.54310    0.76940    1.000
    C19      C        0.95130    0.52160    0.88900    1.000
    C20      C        0.54870    0.26230    0.23260    1.000
    H12      H        0.47650    0.18880    0.15100    1.000
    Zn3      Zn       0.00000    0.50000    0.50000    1.000
