# CIF file generated by openbabel 3.1.0, see https://openbabel.org
data_I
_chemical_name_common 'image0'
_cell_length_a 26.113
_cell_length_b 26.113
_cell_length_c 19.6459
_cell_angle_alpha 90
_cell_angle_beta 90
_cell_angle_gamma 120
_space_group_name_H-M_alt 'P 1'
_space_group_name_Hall 'P 1'
loop_
    _symmetry_equiv_pos_as_xyz
    x,y,z
loop_
    _atom_site_label
    _atom_site_type_symbol
    _atom_site_fract_x
    _atom_site_fract_y
    _atom_site_fract_z
    _atom_site_occupancy
    Co1      Co       0.66716    0.10261    0.40179    1.000
    N1       N        0.74115    0.17309    0.43630    1.000
    N2       N        0.65954    0.03720    0.46160    1.000
    N3       N        0.68000    0.07980    0.30810    1.000
    N4       N        0.60340    0.12190    0.43240    1.000
    C1       C        0.75820    0.18630    0.50340    1.000
    C2       C        0.70320    0.02310    0.47480    1.000
    C3       C        0.68070    0.03260    0.28500    1.000
    C4       C        0.60720    0.15950    0.47470    1.000
    C5       C        0.73430    0.15620    0.56490    1.000
    C6       C        0.76050    0.04550    0.44990    1.000
    H1       H        0.68110    0.00370    0.31210    1.000
    H2       H        0.64000    0.18330    0.50150    1.000
    H3       H        0.69890    0.12030    0.56500    1.000
    C7       C        0.76260    0.17970    0.62290    1.000
    C8       C        0.79360    0.02100    0.47400    1.000
    H4       H        0.77610    0.07590    0.41810    1.000
    O1       O        0.67329    0.17952    0.30582    1.000
    O2       O        0.55350    0.02540    0.35520    1.000
    Cl1      Cl       0.71970    0.13480    0.69500    1.000
    Cl2      Cl       0.85620    0.03020    0.43990    1.000
    Co2      Co       0.89739    0.56455    0.40179    1.000
    N5       N        0.82691    0.56806    0.43630    1.000
    N6       N        0.96280    0.62234    0.46160    1.000
    N7       N        0.92020    0.60020    0.30810    1.000
    N8       N        0.87810    0.48150    0.43240    1.000
    C9       C        0.81370    0.57190    0.50340    1.000
    C10      C        0.97690    0.68010    0.47480    1.000
    C11      C        0.96740    0.64810    0.28500    1.000
    C12      C        0.84050    0.44770    0.47470    1.000
    C13      C        0.84380    0.57810    0.56490    1.000
    C14      C        0.95450    0.71500    0.44990    1.000
    H5       H        0.99630    0.67740    0.31210    1.000
    H6       H        0.81670    0.45670    0.50150    1.000
    H7       H        0.87970    0.57860    0.56500    1.000
    C15      C        0.82030    0.58290    0.62290    1.000
    C16      C        0.97900    0.77260    0.47400    1.000
    H8       H        0.92410    0.70020    0.41810    1.000
    O3       O        0.82048    0.49377    0.30582    1.000
    O4       O        0.97460    0.52810    0.35520    1.000
    Cl3      Cl       0.86520    0.58490    0.69500    1.000
    Cl4      Cl       0.96980    0.82600    0.43990    1.000
    Co3      Co       0.43545    0.33284    0.40179    1.000
    N9       N        0.43194    0.25885    0.43630    1.000
    N10      N        0.37766    0.34046    0.46160    1.000
    N11      N        0.39980    0.32000    0.30810    1.000
    N12      N        0.51850    0.39660    0.43240    1.000
    C17      C        0.42810    0.24180    0.50340    1.000
    C18      C        0.31990    0.29680    0.47480    1.000
    C19      C        0.35190    0.31930    0.28500    1.000
    C20      C        0.55230    0.39280    0.47470    1.000
    C21      C        0.42190    0.26570    0.56490    1.000
    C22      C        0.28500    0.23950    0.44990    1.000
    H9       H        0.32260    0.31890    0.31210    1.000
    H10      H        0.54330    0.36000    0.50150    1.000
    H11      H        0.42140    0.30110    0.56500    1.000
    C23      C        0.41710    0.23740    0.62290    1.000
    C24      C        0.22740    0.20640    0.47400    1.000
    H12      H        0.29980    0.22390    0.41810    1.000
    O5       O        0.50623    0.32671    0.30582    1.000
    O6       O        0.47190    0.44650    0.35520    1.000
    Cl5      Cl       0.41510    0.28030    0.69500    1.000
    Cl6      Cl       0.17400    0.14380    0.43990    1.000
    Co4      Co       0.33284    0.89739    0.90179    1.000
    N13      N        0.25885    0.82691    0.93630    1.000
    N14      N        0.34046    0.96280    0.96160    1.000
    N15      N        0.32000    0.92020    0.80810    1.000
    N16      N        0.39660    0.87810    0.93240    1.000
    C25      C        0.24180    0.81370    0.00340    1.000
    C26      C        0.29680    0.97690    0.97480    1.000
    C27      C        0.31930    0.96740    0.78500    1.000
    C28      C        0.39280    0.84050    0.97470    1.000
    C29      C        0.26570    0.84380    0.06490    1.000
    C30      C        0.23950    0.95450    0.94990    1.000
    H13      H        0.31890    0.99630    0.81210    1.000
    H14      H        0.36000    0.81670    0.00150    1.000
    H15      H        0.30110    0.87970    0.06500    1.000
    C31      C        0.23740    0.82030    0.12290    1.000
    C32      C        0.20640    0.97900    0.97400    1.000
    H16      H        0.22390    0.92410    0.91810    1.000
    O7       O        0.32671    0.82048    0.80582    1.000
    O8       O        0.44650    0.97460    0.85520    1.000
    Cl7      Cl       0.28030    0.86520    0.19500    1.000
    Cl8      Cl       0.14380    0.96980    0.93990    1.000
    Co5      Co       0.10261    0.43545    0.90179    1.000
    N17      N        0.17309    0.43194    0.93630    1.000
    N18      N        0.03720    0.37766    0.96160    1.000
    N19      N        0.07980    0.39980    0.80810    1.000
    N20      N        0.12190    0.51850    0.93240    1.000
    C33      C        0.18630    0.42810    0.00340    1.000
    C34      C        0.02310    0.31990    0.97480    1.000
    C35      C        0.03260    0.35190    0.78500    1.000
    C36      C        0.15950    0.55230    0.97470    1.000
    C37      C        0.15620    0.42190    0.06490    1.000
    C38      C        0.04550    0.28500    0.94990    1.000
    H17      H        0.00370    0.32260    0.81210    1.000
    H18      H        0.18330    0.54330    0.00150    1.000
    H19      H        0.12030    0.42140    0.06500    1.000
    C39      C        0.17970    0.41710    0.12290    1.000
    C40      C        0.02100    0.22740    0.97400    1.000
    H20      H        0.07590    0.29980    0.91810    1.000
    O9       O        0.17952    0.50623    0.80582    1.000
    O10      O        0.02540    0.47190    0.85520    1.000
    Cl9      Cl       0.13480    0.41510    0.19500    1.000
    Cl10     Cl       0.03020    0.17400    0.93990    1.000
    Co6      Co       0.56455    0.66716    0.90179    1.000
    N21      N        0.56806    0.74115    0.93630    1.000
    N22      N        0.62234    0.65954    0.96160    1.000
    N23      N        0.60020    0.68000    0.80810    1.000
    N24      N        0.48150    0.60340    0.93240    1.000
    C41      C        0.57190    0.75820    0.00340    1.000
    C42      C        0.68010    0.70320    0.97480    1.000
    C43      C        0.64810    0.68070    0.78500    1.000
    C44      C        0.44770    0.60720    0.97470    1.000
    C45      C        0.57810    0.73430    0.06490    1.000
    C46      C        0.71500    0.76050    0.94990    1.000
    H21      H        0.67740    0.68110    0.81210    1.000
    H22      H        0.45670    0.64000    0.00150    1.000
    H23      H        0.57860    0.69890    0.06500    1.000
    C47      C        0.58290    0.76260    0.12290    1.000
    C48      C        0.77260    0.79360    0.97400    1.000
    H24      H        0.70020    0.77610    0.91810    1.000
    O11      O        0.49377    0.67329    0.80582    1.000
    O12      O        0.52810    0.55350    0.85520    1.000
    Cl11     Cl       0.58490    0.71970    0.19500    1.000
    Cl12     Cl       0.82600    0.85620    0.93990    1.000
    Co7      Co       0.10261    0.66716    0.59821    1.000
    N25      N        0.17309    0.74115    0.56370    1.000
    N26      N        0.03720    0.65954    0.53840    1.000
    N27      N        0.07980    0.68000    0.69190    1.000
    N28      N        0.12190    0.60340    0.56760    1.000
    C49      C        0.18630    0.75820    0.49660    1.000
    C50      C        0.02310    0.70320    0.52520    1.000
    C51      C        0.03260    0.68070    0.71500    1.000
    C52      C        0.15950    0.60720    0.52530    1.000
    C53      C        0.15620    0.73430    0.43510    1.000
    C54      C        0.04550    0.76050    0.55010    1.000
    H25      H        0.00370    0.68110    0.68790    1.000
    H26      H        0.18330    0.64000    0.49850    1.000
    H27      H        0.12030    0.69890    0.43500    1.000
    C55      C        0.17970    0.76260    0.37710    1.000
    C56      C        0.02100    0.79360    0.52600    1.000
    H28      H        0.07590    0.77610    0.58190    1.000
    O13      O        0.17952    0.67329    0.69418    1.000
    O14      O        0.02540    0.55350    0.64480    1.000
    Cl13     Cl       0.13480    0.71970    0.30500    1.000
    Cl14     Cl       0.03020    0.85620    0.56010    1.000
    Co8      Co       0.56455    0.89739    0.59821    1.000
    N29      N        0.56806    0.82691    0.56370    1.000
    N30      N        0.62234    0.96280    0.53840    1.000
    N31      N        0.60020    0.92020    0.69190    1.000
    N32      N        0.48150    0.87810    0.56760    1.000
    C57      C        0.57190    0.81370    0.49660    1.000
    C58      C        0.68010    0.97690    0.52520    1.000
    C59      C        0.64810    0.96740    0.71500    1.000
    C60      C        0.44770    0.84050    0.52530    1.000
    C61      C        0.57810    0.84380    0.43510    1.000
    C62      C        0.71500    0.95450    0.55010    1.000
    H29      H        0.67740    0.99630    0.68790    1.000
    H30      H        0.45670    0.81670    0.49850    1.000
    H31      H        0.57860    0.87970    0.43500    1.000
    C63      C        0.58290    0.82030    0.37710    1.000
    C64      C        0.77260    0.97900    0.52600    1.000
    H32      H        0.70020    0.92410    0.58190    1.000
    O15      O        0.49377    0.82048    0.69418    1.000
    O16      O        0.52810    0.97460    0.64480    1.000
    Cl15     Cl       0.58490    0.86520    0.30500    1.000
    Cl16     Cl       0.82600    0.96980    0.56010    1.000
    Co9      Co       0.33284    0.43545    0.59821    1.000
    N33      N        0.25885    0.43194    0.56370    1.000
    N34      N        0.34046    0.37766    0.53840    1.000
    N35      N        0.32000    0.39980    0.69190    1.000
    N36      N        0.39660    0.51850    0.56760    1.000
    C65      C        0.24180    0.42810    0.49660    1.000
    C66      C        0.29680    0.31990    0.52520    1.000
    C67      C        0.31930    0.35190    0.71500    1.000
    C68      C        0.39280    0.55230    0.52530    1.000
    C69      C        0.26570    0.42190    0.43510    1.000
    C70      C        0.23950    0.28500    0.55010    1.000
    H33      H        0.31890    0.32260    0.68790    1.000
    H34      H        0.36000    0.54330    0.49850    1.000
    H35      H        0.30110    0.42140    0.43500    1.000
    C71      C        0.23740    0.41710    0.37710    1.000
    C72      C        0.20640    0.22740    0.52600    1.000
    H36      H        0.22390    0.29980    0.58190    1.000
    O17      O        0.32671    0.50623    0.69418    1.000
    O18      O        0.44650    0.47190    0.64480    1.000
    Cl17     Cl       0.28030    0.41510    0.30500    1.000
    Cl18     Cl       0.14380    0.17400    0.56010    1.000
    Co10     Co       0.89739    0.33284    0.09821    1.000
    N37      N        0.82691    0.25885    0.06370    1.000
    N38      N        0.96280    0.34046    0.03840    1.000
    N39      N        0.92020    0.32000    0.19190    1.000
    N40      N        0.87810    0.39660    0.06760    1.000
    C73      C        0.81370    0.24180    0.99660    1.000
    C74      C        0.97690    0.29680    0.02520    1.000
    C75      C        0.96740    0.31930    0.21500    1.000
    C76      C        0.84050    0.39280    0.02530    1.000
    C77      C        0.84380    0.26570    0.93510    1.000
    C78      C        0.95450    0.23950    0.05010    1.000
    H37      H        0.99630    0.31890    0.18790    1.000
    H38      H        0.81670    0.36000    0.99850    1.000
    H39      H        0.87970    0.30110    0.93500    1.000
    C79      C        0.82030    0.23740    0.87710    1.000
    C80      C        0.97900    0.20640    0.02600    1.000
    H40      H        0.92410    0.22390    0.08190    1.000
    O19      O        0.82048    0.32671    0.19418    1.000
    O20      O        0.97460    0.44650    0.14480    1.000
    Cl19     Cl       0.86520    0.28030    0.80500    1.000
    Cl20     Cl       0.96980    0.14380    0.06010    1.000
    Co11     Co       0.43545    0.10261    0.09821    1.000
    N41      N        0.43194    0.17309    0.06370    1.000
    N42      N        0.37766    0.03720    0.03840    1.000
    N43      N        0.39980    0.07980    0.19190    1.000
    N44      N        0.51850    0.12190    0.06760    1.000
    C81      C        0.42810    0.18630    0.99660    1.000
    C82      C        0.31990    0.02310    0.02520    1.000
    C83      C        0.35190    0.03260    0.21500    1.000
    C84      C        0.55230    0.15950    0.02530    1.000
    C85      C        0.42190    0.15620    0.93510    1.000
    C86      C        0.28500    0.04550    0.05010    1.000
    H41      H        0.32260    0.00370    0.18790    1.000
    H42      H        0.54330    0.18330    0.99850    1.000
    H43      H        0.42140    0.12030    0.93500    1.000
    C87      C        0.41710    0.17970    0.87710    1.000
    C88      C        0.22740    0.02100    0.02600    1.000
    H44      H        0.29980    0.07590    0.08190    1.000
    O21      O        0.50623    0.17952    0.19418    1.000
    O22      O        0.47190    0.02540    0.14480    1.000
    Cl21     Cl       0.41510    0.13480    0.80500    1.000
    Cl22     Cl       0.17400    0.03020    0.06010    1.000
    Co12     Co       0.66716    0.56455    0.09821    1.000
    N45      N        0.74115    0.56806    0.06370    1.000
    N46      N        0.65954    0.62234    0.03840    1.000
    N47      N        0.68000    0.60020    0.19190    1.000
    N48      N        0.60340    0.48150    0.06760    1.000
    C89      C        0.75820    0.57190    0.99660    1.000
    C90      C        0.70320    0.68010    0.02520    1.000
    C91      C        0.68070    0.64810    0.21500    1.000
    C92      C        0.60720    0.44770    0.02530    1.000
    C93      C        0.73430    0.57810    0.93510    1.000
    C94      C        0.76050    0.71500    0.05010    1.000
    H45      H        0.68110    0.67740    0.18790    1.000
    H46      H        0.64000    0.45670    0.99850    1.000
    H47      H        0.69890    0.57860    0.93500    1.000
    C95      C        0.76260    0.58290    0.87710    1.000
    C96      C        0.79360    0.77260    0.02600    1.000
    H48      H        0.77610    0.70020    0.08190    1.000
    O23      O        0.67329    0.49377    0.19418    1.000
    O24      O        0.55350    0.52810    0.14480    1.000
    Cl23     Cl       0.71970    0.58490    0.80500    1.000
    Cl24     Cl       0.85620    0.82600    0.06010    1.000
    Co13     Co       0.33284    0.89739    0.59821    1.000
    N49      N        0.25885    0.82691    0.56370    1.000
    N50      N        0.34046    0.96280    0.53840    1.000
    N51      N        0.32000    0.92020    0.69190    1.000
    N52      N        0.39660    0.87810    0.56760    1.000
    C97      C        0.24180    0.81370    0.49660    1.000
    C98      C        0.29680    0.97690    0.52520    1.000
    C99      C        0.31930    0.96740    0.71500    1.000
    C100     C        0.39280    0.84050    0.52530    1.000
    C101     C        0.26570    0.84380    0.43510    1.000
    C102     C        0.23950    0.95450    0.55010    1.000
    H49      H        0.31890    0.99630    0.68790    1.000
    H50      H        0.36000    0.81670    0.49850    1.000
    H51      H        0.30110    0.87970    0.43500    1.000
    C103     C        0.23740    0.82030    0.37710    1.000
    C104     C        0.20640    0.97900    0.52600    1.000
    H52      H        0.22390    0.92410    0.58190    1.000
    O25      O        0.32671    0.82048    0.69418    1.000
    O26      O        0.44650    0.97460    0.64480    1.000
    Cl25     Cl       0.28030    0.86520    0.30500    1.000
    Cl26     Cl       0.14380    0.96980    0.56010    1.000
    Co14     Co       0.10261    0.43545    0.59821    1.000
    N53      N        0.17309    0.43194    0.56370    1.000
    N54      N        0.03720    0.37766    0.53840    1.000
    N55      N        0.07980    0.39980    0.69190    1.000
    N56      N        0.12190    0.51850    0.56760    1.000
    C105     C        0.18630    0.42810    0.49660    1.000
    C106     C        0.02310    0.31990    0.52520    1.000
    C107     C        0.03260    0.35190    0.71500    1.000
    C108     C        0.15950    0.55230    0.52530    1.000
    C109     C        0.15620    0.42190    0.43510    1.000
    C110     C        0.04550    0.28500    0.55010    1.000
    H53      H        0.00370    0.32260    0.68790    1.000
    H54      H        0.18330    0.54330    0.49850    1.000
    H55      H        0.12030    0.42140    0.43500    1.000
    C111     C        0.17970    0.41710    0.37710    1.000
    C112     C        0.02100    0.22740    0.52600    1.000
    H56      H        0.07590    0.29980    0.58190    1.000
    O27      O        0.17952    0.50623    0.69418    1.000
    O28      O        0.02540    0.47190    0.64480    1.000
    Cl27     Cl       0.13480    0.41510    0.30500    1.000
    Cl28     Cl       0.03020    0.17400    0.56010    1.000
    Co15     Co       0.56455    0.66716    0.59821    1.000
    N57      N        0.56806    0.74115    0.56370    1.000
    N58      N        0.62234    0.65954    0.53840    1.000
    N59      N        0.60020    0.68000    0.69190    1.000
    N60      N        0.48150    0.60340    0.56760    1.000
    C113     C        0.57190    0.75820    0.49660    1.000
    C114     C        0.68010    0.70320    0.52520    1.000
    C115     C        0.64810    0.68070    0.71500    1.000
    C116     C        0.44770    0.60720    0.52530    1.000
    C117     C        0.57810    0.73430    0.43510    1.000
    C118     C        0.71500    0.76050    0.55010    1.000
    H57      H        0.67740    0.68110    0.68790    1.000
    H58      H        0.45670    0.64000    0.49850    1.000
    H59      H        0.57860    0.69890    0.43500    1.000
    C119     C        0.58290    0.76260    0.37710    1.000
    C120     C        0.77260    0.79360    0.52600    1.000
    H60      H        0.70020    0.77610    0.58190    1.000
    O29      O        0.49377    0.67329    0.69418    1.000
    O30      O        0.52810    0.55350    0.64480    1.000
    Cl29     Cl       0.58490    0.71970    0.30500    1.000
    Cl30     Cl       0.82600    0.85620    0.56010    1.000
    Co16     Co       0.66716    0.10261    0.09821    1.000
    N61      N        0.74115    0.17309    0.06370    1.000
    N62      N        0.65954    0.03720    0.03840    1.000
    N63      N        0.68000    0.07980    0.19190    1.000
    N64      N        0.60340    0.12190    0.06760    1.000
    C121     C        0.75820    0.18630    0.99660    1.000
    C122     C        0.70320    0.02310    0.02520    1.000
    C123     C        0.68070    0.03260    0.21500    1.000
    C124     C        0.60720    0.15950    0.02530    1.000
    C125     C        0.73430    0.15620    0.93510    1.000
    C126     C        0.76050    0.04550    0.05010    1.000
    H61      H        0.68110    0.00370    0.18790    1.000
    H62      H        0.64000    0.18330    0.99850    1.000
    H63      H        0.69890    0.12030    0.93500    1.000
    C127     C        0.76260    0.17970    0.87710    1.000
    C128     C        0.79360    0.02100    0.02600    1.000
    H64      H        0.77610    0.07590    0.08190    1.000
    O31      O        0.67329    0.17952    0.19418    1.000
    O32      O        0.55350    0.02540    0.14480    1.000
    Cl31     Cl       0.71970    0.13480    0.80500    1.000
    Cl32     Cl       0.85620    0.03020    0.06010    1.000
    Co17     Co       0.89739    0.56455    0.09821    1.000
    N65      N        0.82691    0.56806    0.06370    1.000
    N66      N        0.96280    0.62234    0.03840    1.000
    N67      N        0.92020    0.60020    0.19190    1.000
    N68      N        0.87810    0.48150    0.06760    1.000
    C129     C        0.81370    0.57190    0.99660    1.000
    C130     C        0.97690    0.68010    0.02520    1.000
    C131     C        0.96740    0.64810    0.21500    1.000
    C132     C        0.84050    0.44770    0.02530    1.000
    C133     C        0.84380    0.57810    0.93510    1.000
    C134     C        0.95450    0.71500    0.05010    1.000
    H65      H        0.99630    0.67740    0.18790    1.000
    H66      H        0.81670    0.45670    0.99850    1.000
    H67      H        0.87970    0.57860    0.93500    1.000
    C135     C        0.82030    0.58290    0.87710    1.000
    C136     C        0.97900    0.77260    0.02600    1.000
    H68      H        0.92410    0.70020    0.08190    1.000
    O33      O        0.82048    0.49377    0.19418    1.000
    O34      O        0.97460    0.52810    0.14480    1.000
    Cl33     Cl       0.86520    0.58490    0.80500    1.000
    Cl34     Cl       0.96980    0.82600    0.06010    1.000
    Co18     Co       0.43545    0.33284    0.09821    1.000
    N69      N        0.43194    0.25885    0.06370    1.000
    N70      N        0.37766    0.34046    0.03840    1.000
    N71      N        0.39980    0.32000    0.19190    1.000
    N72      N        0.51850    0.39660    0.06760    1.000
    C137     C        0.42810    0.24180    0.99660    1.000
    C138     C        0.31990    0.29680    0.02520    1.000
    C139     C        0.35190    0.31930    0.21500    1.000
    C140     C        0.55230    0.39280    0.02530    1.000
    C141     C        0.42190    0.26570    0.93510    1.000
    C142     C        0.28500    0.23950    0.05010    1.000
    H69      H        0.32260    0.31890    0.18790    1.000
    H70      H        0.54330    0.36000    0.99850    1.000
    H71      H        0.42140    0.30110    0.93500    1.000
    C143     C        0.41710    0.23740    0.87710    1.000
    C144     C        0.22740    0.20640    0.02600    1.000
    H72      H        0.29980    0.22390    0.08190    1.000
    O35      O        0.50623    0.32671    0.19418    1.000
    O36      O        0.47190    0.44650    0.14480    1.000
    Cl35     Cl       0.41510    0.28030    0.80500    1.000
    Cl36     Cl       0.17400    0.14380    0.06010    1.000
    Co19     Co       0.89739    0.33284    0.40179    1.000
    N73      N        0.82691    0.25885    0.43630    1.000
    N74      N        0.96280    0.34046    0.46160    1.000
    N75      N        0.92020    0.32000    0.30810    1.000
    N76      N        0.87810    0.39660    0.43240    1.000
    C145     C        0.81370    0.24180    0.50340    1.000
    C146     C        0.97690    0.29680    0.47480    1.000
    C147     C        0.96740    0.31930    0.28500    1.000
    C148     C        0.84050    0.39280    0.47470    1.000
    C149     C        0.84380    0.26570    0.56490    1.000
    C150     C        0.95450    0.23950    0.44990    1.000
    H73      H        0.99630    0.31890    0.31210    1.000
    H74      H        0.81670    0.36000    0.50150    1.000
    H75      H        0.87970    0.30110    0.56500    1.000
    C151     C        0.82030    0.23740    0.62290    1.000
    C152     C        0.97900    0.20640    0.47400    1.000
    H76      H        0.92410    0.22390    0.41810    1.000
    O37      O        0.82048    0.32671    0.30582    1.000
    O38      O        0.97460    0.44650    0.35520    1.000
    Cl37     Cl       0.86520    0.28030    0.69500    1.000
    Cl38     Cl       0.96980    0.14380    0.43990    1.000
    Co20     Co       0.43545    0.10261    0.40179    1.000
    N77      N        0.43194    0.17309    0.43630    1.000
    N78      N        0.37766    0.03720    0.46160    1.000
    N79      N        0.39980    0.07980    0.30810    1.000
    N80      N        0.51850    0.12190    0.43240    1.000
    C153     C        0.42810    0.18630    0.50340    1.000
    C154     C        0.31990    0.02310    0.47480    1.000
    C155     C        0.35190    0.03260    0.28500    1.000
    C156     C        0.55230    0.15950    0.47470    1.000
    C157     C        0.42190    0.15620    0.56490    1.000
    C158     C        0.28500    0.04550    0.44990    1.000
    H77      H        0.32260    0.00370    0.31210    1.000
    H78      H        0.54330    0.18330    0.50150    1.000
    H79      H        0.42140    0.12030    0.56500    1.000
    C159     C        0.41710    0.17970    0.62290    1.000
    C160     C        0.22740    0.02100    0.47400    1.000
    H80      H        0.29980    0.07590    0.41810    1.000
    O39      O        0.50623    0.17952    0.30582    1.000
    O40      O        0.47190    0.02540    0.35520    1.000
    Cl39     Cl       0.41510    0.13480    0.69500    1.000
    Cl40     Cl       0.17400    0.03020    0.43990    1.000
    Co21     Co       0.66716    0.56455    0.40179    1.000
    N81      N        0.74115    0.56806    0.43630    1.000
    N82      N        0.65954    0.62234    0.46160    1.000
    N83      N        0.68000    0.60020    0.30810    1.000
    N84      N        0.60340    0.48150    0.43240    1.000
    C161     C        0.75820    0.57190    0.50340    1.000
    C162     C        0.70320    0.68010    0.47480    1.000
    C163     C        0.68070    0.64810    0.28500    1.000
    C164     C        0.60720    0.44770    0.47470    1.000
    C165     C        0.73430    0.57810    0.56490    1.000
    C166     C        0.76050    0.71500    0.44990    1.000
    H81      H        0.68110    0.67740    0.31210    1.000
    H82      H        0.64000    0.45670    0.50150    1.000
    H83      H        0.69890    0.57860    0.56500    1.000
    C167     C        0.76260    0.58290    0.62290    1.000
    C168     C        0.79360    0.77260    0.47400    1.000
    H84      H        0.77610    0.70020    0.41810    1.000
    O41      O        0.67329    0.49377    0.30582    1.000
    O42      O        0.55350    0.52810    0.35520    1.000
    Cl41     Cl       0.71970    0.58490    0.69500    1.000
    Cl42     Cl       0.85620    0.82600    0.43990    1.000
    Co22     Co       0.10261    0.66716    0.90179    1.000
    N85      N        0.17309    0.74115    0.93630    1.000
    N86      N        0.03720    0.65954    0.96160    1.000
    N87      N        0.07980    0.68000    0.80810    1.000
    N88      N        0.12190    0.60340    0.93240    1.000
    C169     C        0.18630    0.75820    0.00340    1.000
    C170     C        0.02310    0.70320    0.97480    1.000
    C171     C        0.03260    0.68070    0.78500    1.000
    C172     C        0.15950    0.60720    0.97470    1.000
    C173     C        0.15620    0.73430    0.06490    1.000
    C174     C        0.04550    0.76050    0.94990    1.000
    H85      H        0.00370    0.68110    0.81210    1.000
    H86      H        0.18330    0.64000    0.00150    1.000
    H87      H        0.12030    0.69890    0.06500    1.000
    C175     C        0.17970    0.76260    0.12290    1.000
    C176     C        0.02100    0.79360    0.97400    1.000
    H88      H        0.07590    0.77610    0.91810    1.000
    O43      O        0.17952    0.67329    0.80582    1.000
    O44      O        0.02540    0.55350    0.85520    1.000
    Cl43     Cl       0.13480    0.71970    0.19500    1.000
    Cl44     Cl       0.03020    0.85620    0.93990    1.000
    Co23     Co       0.56455    0.89739    0.90179    1.000
    N89      N        0.56806    0.82691    0.93630    1.000
    N90      N        0.62234    0.96280    0.96160    1.000
    N91      N        0.60020    0.92020    0.80810    1.000
    N92      N        0.48150    0.87810    0.93240    1.000
    C177     C        0.57190    0.81370    0.00340    1.000
    C178     C        0.68010    0.97690    0.97480    1.000
    C179     C        0.64810    0.96740    0.78500    1.000
    C180     C        0.44770    0.84050    0.97470    1.000
    C181     C        0.57810    0.84380    0.06490    1.000
    C182     C        0.71500    0.95450    0.94990    1.000
    H89      H        0.67740    0.99630    0.81210    1.000
    H90      H        0.45670    0.81670    0.00150    1.000
    H91      H        0.57860    0.87970    0.06500    1.000
    C183     C        0.58290    0.82030    0.12290    1.000
    C184     C        0.77260    0.97900    0.97400    1.000
    H92      H        0.70020    0.92410    0.91810    1.000
    O45      O        0.49377    0.82048    0.80582    1.000
    O46      O        0.52810    0.97460    0.85520    1.000
    Cl45     Cl       0.58490    0.86520    0.19500    1.000
    Cl46     Cl       0.82600    0.96980    0.93990    1.000
    Co24     Co       0.33284    0.43545    0.90179    1.000
    N93      N        0.25885    0.43194    0.93630    1.000
    N94      N        0.34046    0.37766    0.96160    1.000
    N95      N        0.32000    0.39980    0.80810    1.000
    N96      N        0.39660    0.51850    0.93240    1.000
    C185     C        0.24180    0.42810    0.00340    1.000
    C186     C        0.29680    0.31990    0.97480    1.000
    C187     C        0.31930    0.35190    0.78500    1.000
    C188     C        0.39280    0.55230    0.97470    1.000
    C189     C        0.26570    0.42190    0.06490    1.000
    C190     C        0.23950    0.28500    0.94990    1.000
    H93      H        0.31890    0.32260    0.81210    1.000
    H94      H        0.36000    0.54330    0.00150    1.000
    H95      H        0.30110    0.42140    0.06500    1.000
    C191     C        0.23740    0.41710    0.12290    1.000
    C192     C        0.20640    0.22740    0.97400    1.000
    H96      H        0.22390    0.29980    0.91810    1.000
    O47      O        0.32671    0.50623    0.80582    1.000
    O48      O        0.44650    0.47190    0.85520    1.000
    Cl47     Cl       0.28030    0.41510    0.19500    1.000
    Cl48     Cl       0.14380    0.17400    0.93990    1.000
    C193     C        0.78285    0.21715    0.40100    1.000
    H97      H        0.78130    0.21870    0.35380    1.000
    C194     C        0.78285    0.56570    0.40100    1.000
    H98      H        0.78130    0.56260    0.35380    1.000
    C195     C        0.43430    0.21715    0.40100    1.000
    H99      H        0.43740    0.21870    0.35380    1.000
    C196     C        0.21715    0.78285    0.90100    1.000
    H100     H        0.21870    0.78130    0.85380    1.000
    C197     C        0.21715    0.43430    0.90100    1.000
    H101     H        0.21870    0.43740    0.85380    1.000
    C198     C        0.56570    0.78285    0.90100    1.000
    H102     H        0.56260    0.78130    0.85380    1.000
    C199     C        0.21715    0.78285    0.59900    1.000
    H103     H        0.21870    0.78130    0.64620    1.000
    C200     C        0.56570    0.78285    0.59900    1.000
    H104     H        0.56260    0.78130    0.64620    1.000
    C201     C        0.21715    0.43430    0.59900    1.000
    H105     H        0.21870    0.43740    0.64620    1.000
    C202     C        0.78285    0.21715    0.09900    1.000
    H106     H        0.78130    0.21870    0.14620    1.000
    C203     C        0.43430    0.21715    0.09900    1.000
    H107     H        0.43740    0.21870    0.14620    1.000
    C204     C        0.78285    0.56570    0.09900    1.000
    H108     H        0.78130    0.56260    0.14620    1.000
    C205     C        0.61370    0.00000    0.50000    1.000
    H109     H        0.57810    0.00000    0.50000    1.000
    C206     C        0.00000    0.61370    0.50000    1.000
    H110     H        0.00000    0.57810    0.50000    1.000
    C207     C        0.38630    0.38630    0.50000    1.000
    H111     H        0.42190    0.42190    0.50000    1.000
    C208     C        0.38630    0.00000    0.00000    1.000
    H112     H        0.42190    0.00000    0.00000    1.000
    C209     C        0.00000    0.38630    0.00000    1.000
    H113     H        0.00000    0.42190    0.00000    1.000
    C210     C        0.61370    0.61370    0.00000    1.000
    H114     H        0.57810    0.57810    0.00000    1.000
    C211     C        0.38630    0.00000    0.50000    1.000
    H115     H        0.42190    0.00000    0.50000    1.000
    C212     C        0.00000    0.38630    0.50000    1.000
    H116     H        0.00000    0.42190    0.50000    1.000
    C213     C        0.61370    0.61370    0.50000    1.000
    H117     H        0.57810    0.57810    0.50000    1.000
    C214     C        0.61370    0.00000    0.00000    1.000
    H118     H        0.57810    0.00000    0.00000    1.000
    C215     C        0.00000    0.61370    0.00000    1.000
    H119     H        0.00000    0.57810    0.00000    1.000
    C216     C        0.38630    0.38630    0.00000    1.000
    H120     H        0.42190    0.42190    0.00000    1.000
    C217     C        0.67740    0.10630    0.25000    1.000
    N97      N        0.67620    0.15920    0.25000    1.000
    C218     C        0.89370    0.57110    0.25000    1.000
    N98      N        0.84080    0.51700    0.25000    1.000
    C219     C        0.42890    0.32260    0.25000    1.000
    N99      N        0.48300    0.32380    0.25000    1.000
    C220     C        0.32260    0.89370    0.75000    1.000
    N100     N        0.32380    0.84080    0.75000    1.000
    C221     C        0.10630    0.42890    0.75000    1.000
    N101     N        0.15920    0.48300    0.75000    1.000
    C222     C        0.57110    0.67740    0.75000    1.000
    N102     N        0.51700    0.67620    0.75000    1.000
    C223     C        0.10630    0.67740    0.75000    1.000
    N103     N        0.15920    0.67620    0.75000    1.000
    C224     C        0.57110    0.89370    0.75000    1.000
    N104     N        0.51700    0.84080    0.75000    1.000
    C225     C        0.32260    0.42890    0.75000    1.000
    N105     N        0.32380    0.48300    0.75000    1.000
    C226     C        0.89370    0.32260    0.25000    1.000
    N106     N        0.84080    0.32380    0.25000    1.000
    C227     C        0.42890    0.10630    0.25000    1.000
    N107     N        0.48300    0.15920    0.25000    1.000
    C228     C        0.67740    0.57110    0.25000    1.000
    N108     N        0.67620    0.51700    0.25000    1.000
    C229     C        0.54805    0.09610    0.41100    1.000
    N109     N        0.52165    0.04330    0.37420    1.000
    C230     C        0.90390    0.45195    0.41100    1.000
    N110     N        0.95670    0.47835    0.37420    1.000
    C231     C        0.54805    0.45195    0.41100    1.000
    N111     N        0.52165    0.47835    0.37420    1.000
    C232     C        0.45195    0.90390    0.91100    1.000
    N112     N        0.47835    0.95670    0.87420    1.000
    C233     C        0.09610    0.54805    0.91100    1.000
    N113     N        0.04330    0.52165    0.87420    1.000
    C234     C        0.45195    0.54805    0.91100    1.000
    N114     N        0.47835    0.52165    0.87420    1.000
    C235     C        0.09610    0.54805    0.58900    1.000
    N115     N        0.04330    0.52165    0.62580    1.000
    C236     C        0.45195    0.90390    0.58900    1.000
    N116     N        0.47835    0.95670    0.62580    1.000
    C237     C        0.45195    0.54805    0.58900    1.000
    N117     N        0.47835    0.52165    0.62580    1.000
    C238     C        0.90390    0.45195    0.08900    1.000
    N118     N        0.95670    0.47835    0.12580    1.000
    C239     C        0.54805    0.09610    0.08900    1.000
    N119     N        0.52165    0.04330    0.12580    1.000
    C240     C        0.54805    0.45195    0.08900    1.000
    N120     N        0.52165    0.47835    0.12580    1.000
