# CIF file generated by openbabel 3.1.0, see https://openbabel.org
data_I
_chemical_name_common 'image0'
_cell_length_a 14.154
_cell_length_b 16.2511
_cell_length_c 19.1495
_cell_angle_alpha 90
_cell_angle_beta 90
_cell_angle_gamma 90
_space_group_name_H-M_alt 'P 1'
_space_group_name_Hall 'P 1'
loop_
    _symmetry_equiv_pos_as_xyz
    x,y,z
loop_
    _atom_site_label
    _atom_site_type_symbol
    _atom_site_fract_x
    _atom_site_fract_y
    _atom_site_fract_z
    _atom_site_occupancy
    Mg1      Mg       0.52244    0.20883    0.45571    1.000
    Mg2      Mg       0.31033    0.24077    0.56445    1.000
    O1       O        0.41687    0.29808    0.47764    1.000
    O2       O        0.37632    0.72795    0.48848    1.000
    O3       O        0.55810    0.26133    0.36353    1.000
    O4       O        0.48032    0.34735    0.04580    1.000
    O5       O        0.24223    0.65897    0.49812    1.000
    O6       O        0.30585    0.35986    0.53605    1.000
    O7       O        0.41234    0.28004    0.13126    1.000
    O8       O        0.71388    0.26567    0.36504    1.000
    C1       C        0.32851    0.66432    0.48080    1.000
    C2       C        0.37347    0.58916    0.45136    1.000
    C3       C        0.34965    0.51289    0.47910    1.000
    H1       H        0.30300    0.50950    0.51310    1.000
    C4       C        0.39448    0.44202    0.45675    1.000
    C5       C        0.46088    0.44701    0.40416    1.000
    H2       H        0.49070    0.39950    0.38840    1.000
    C6       C        0.48320    0.52204    0.37491    1.000
    H3       H        0.52640    0.52480    0.33840    1.000
    C7       C        0.44153    0.59321    0.39957    1.000
    H4       H        0.45930    0.64400    0.38130    1.000
    C8       C        0.63562    0.27793    0.33674    1.000
    C9       C        0.55958    0.30679    0.22189    1.000
    H5       H        0.50530    0.28110    0.23840    1.000
    C10      C        0.63692    0.31429    0.26511    1.000
    C11      C        0.71650    0.35400    0.24013    1.000
    H6       H        0.76990    0.35780    0.26820    1.000
    C12      C        0.47952    0.32084    0.10711    1.000
    C13      C        0.56121    0.33673    0.15445    1.000
    C14      C        0.64030    0.37860    0.13105    1.000
    H7       H        0.64130    0.40050    0.08620    1.000
    C15      C        0.37196    0.36227    0.49132    1.000
    C16      C        0.71750    0.38780    0.17427    1.000
    H8       H        0.77020    0.41680    0.15890    1.000
    Mg3      Mg       0.97756    0.79117    0.95571    1.000
    Mg4      Mg       0.18967    0.75923    0.06445    1.000
    O9       O        0.08313    0.70192    0.97764    1.000
    O10      O        0.12368    0.27205    0.98848    1.000
    O11      O        0.94190    0.73867    0.86353    1.000
    O12      O        0.01968    0.65265    0.54580    1.000
    O13      O        0.25777    0.34103    0.99812    1.000
    O14      O        0.19415    0.64014    0.03605    1.000
    O15      O        0.08766    0.71996    0.63126    1.000
    O16      O        0.78612    0.73433    0.86504    1.000
    C17      C        0.17149    0.33568    0.98080    1.000
    C18      C        0.12653    0.41084    0.95136    1.000
    C19      C        0.15035    0.48711    0.97910    1.000
    H9       H        0.19700    0.49050    0.01310    1.000
    C20      C        0.10552    0.55798    0.95675    1.000
    C21      C        0.03912    0.55299    0.90416    1.000
    H10      H        0.00930    0.60050    0.88840    1.000
    C22      C        0.01680    0.47796    0.87491    1.000
    H11      H        0.97360    0.47520    0.83840    1.000
    C23      C        0.05847    0.40679    0.89957    1.000
    H12      H        0.04070    0.35600    0.88130    1.000
    C24      C        0.86438    0.72207    0.83674    1.000
    C25      C        0.94042    0.69321    0.72189    1.000
    H13      H        0.99470    0.71890    0.73840    1.000
    C26      C        0.86308    0.68571    0.76511    1.000
    C27      C        0.78350    0.64600    0.74013    1.000
    H14      H        0.73010    0.64220    0.76820    1.000
    C28      C        0.02048    0.67916    0.60711    1.000
    C29      C        0.93879    0.66327    0.65445    1.000
    C30      C        0.85970    0.62140    0.63105    1.000
    H15      H        0.85870    0.59950    0.58620    1.000
    C31      C        0.12804    0.63773    0.99132    1.000
    C32      C        0.78250    0.61220    0.67427    1.000
    H16      H        0.72980    0.58320    0.65890    1.000
    Mg5      Mg       0.47756    0.70883    0.04429    1.000
    Mg6      Mg       0.68967    0.74077    0.93555    1.000
    O17      O        0.58313    0.79808    0.02236    1.000
    O18      O        0.62368    0.22795    0.01152    1.000
    O19      O        0.44190    0.76133    0.13647    1.000
    O20      O        0.51968    0.84735    0.45420    1.000
    O21      O        0.75777    0.15897    0.00188    1.000
    O22      O        0.69415    0.85986    0.96395    1.000
    O23      O        0.58766    0.78004    0.36874    1.000
    O24      O        0.28612    0.76567    0.13496    1.000
    C33      C        0.67149    0.16432    0.01920    1.000
    C34      C        0.62653    0.08916    0.04864    1.000
    C35      C        0.65035    0.01289    0.02090    1.000
    H17      H        0.69700    0.00950    0.98690    1.000
    C36      C        0.60552    0.94202    0.04325    1.000
    C37      C        0.53912    0.94701    0.09584    1.000
    H18      H        0.50930    0.89950    0.11160    1.000
    C38      C        0.51680    0.02204    0.12509    1.000
    H19      H        0.47360    0.02480    0.16160    1.000
    C39      C        0.55847    0.09321    0.10043    1.000
    H20      H        0.54070    0.14400    0.11870    1.000
    C40      C        0.36438    0.77793    0.16326    1.000
    C41      C        0.44042    0.80679    0.27811    1.000
    H21      H        0.49470    0.78110    0.26160    1.000
    C42      C        0.36308    0.81429    0.23489    1.000
    C43      C        0.28350    0.85400    0.25987    1.000
    H22      H        0.23010    0.85780    0.23180    1.000
    C44      C        0.52048    0.82084    0.39289    1.000
    C45      C        0.43879    0.83673    0.34555    1.000
    C46      C        0.35970    0.87860    0.36895    1.000
    H23      H        0.35870    0.90050    0.41380    1.000
    C47      C        0.62804    0.86227    0.00868    1.000
    C48      C        0.28250    0.88780    0.32573    1.000
    H24      H        0.22980    0.91680    0.34110    1.000
    Mg7      Mg       0.02244    0.29117    0.54429    1.000
    Mg8      Mg       0.81033    0.25923    0.43555    1.000
    O25      O        0.91687    0.20192    0.52236    1.000
    O26      O        0.87632    0.77205    0.51152    1.000
    O27      O        0.05810    0.23867    0.63647    1.000
    O28      O        0.98032    0.15265    0.95420    1.000
    O29      O        0.74223    0.84103    0.50188    1.000
    O30      O        0.80585    0.14014    0.46395    1.000
    O31      O        0.91234    0.21996    0.86874    1.000
    O32      O        0.21388    0.23433    0.63496    1.000
    C49      C        0.82851    0.83568    0.51920    1.000
    C50      C        0.87347    0.91084    0.54864    1.000
    C51      C        0.84965    0.98711    0.52090    1.000
    H25      H        0.80300    0.99050    0.48690    1.000
    C52      C        0.89448    0.05798    0.54325    1.000
    C53      C        0.96088    0.05299    0.59584    1.000
    H26      H        0.99070    0.10050    0.61160    1.000
    C54      C        0.98320    0.97796    0.62509    1.000
    H27      H        0.02640    0.97520    0.66160    1.000
    C55      C        0.94153    0.90679    0.60043    1.000
    H28      H        0.95930    0.85600    0.61870    1.000
    C56      C        0.13562    0.22207    0.66326    1.000
    C57      C        0.05958    0.19321    0.77811    1.000
    H29      H        0.00530    0.21890    0.76160    1.000
    C58      C        0.13692    0.18571    0.73489    1.000
    C59      C        0.21650    0.14600    0.75987    1.000
    H30      H        0.26990    0.14220    0.73180    1.000
    C60      C        0.97952    0.17916    0.89289    1.000
    C61      C        0.06121    0.16327    0.84555    1.000
    C62      C        0.14030    0.12140    0.86895    1.000
    H31      H        0.14130    0.09950    0.91380    1.000
    C63      C        0.87196    0.13773    0.50868    1.000
    C64      C        0.21750    0.11220    0.82573    1.000
    H32      H        0.27020    0.08320    0.84110    1.000
    Mg9      Mg       0.47756    0.79117    0.54429    1.000
    Mg10     Mg       0.68967    0.75923    0.43555    1.000
    O33      O        0.58313    0.70192    0.52236    1.000
    O34      O        0.62368    0.27205    0.51152    1.000
    O35      O        0.44190    0.73867    0.63647    1.000
    O36      O        0.51968    0.65265    0.95420    1.000
    O37      O        0.75777    0.34103    0.50188    1.000
    O38      O        0.69415    0.64014    0.46395    1.000
    O39      O        0.58766    0.71996    0.86874    1.000
    O40      O        0.28612    0.73433    0.63496    1.000
    C65      C        0.67149    0.33568    0.51920    1.000
    C66      C        0.62653    0.41084    0.54864    1.000
    C67      C        0.65035    0.48711    0.52090    1.000
    H33      H        0.69700    0.49050    0.48690    1.000
    C68      C        0.60552    0.55798    0.54325    1.000
    C69      C        0.53912    0.55299    0.59584    1.000
    H34      H        0.50930    0.60050    0.61160    1.000
    C70      C        0.51680    0.47796    0.62509    1.000
    H35      H        0.47360    0.47520    0.66160    1.000
    C71      C        0.55847    0.40679    0.60043    1.000
    H36      H        0.54070    0.35600    0.61870    1.000
    C72      C        0.36438    0.72207    0.66326    1.000
    C73      C        0.44042    0.69321    0.77811    1.000
    H37      H        0.49470    0.71890    0.76160    1.000
    C74      C        0.36308    0.68571    0.73489    1.000
    C75      C        0.28350    0.64600    0.75987    1.000
    H38      H        0.23010    0.64220    0.73180    1.000
    C76      C        0.52048    0.67916    0.89289    1.000
    C77      C        0.43879    0.66327    0.84555    1.000
    C78      C        0.35970    0.62140    0.86895    1.000
    H39      H        0.35870    0.59950    0.91380    1.000
    C79      C        0.62804    0.63773    0.50868    1.000
    C80      C        0.28250    0.61220    0.82573    1.000
    H40      H        0.22980    0.58320    0.84110    1.000
    Mg11     Mg       0.02244    0.20883    0.04429    1.000
    Mg12     Mg       0.81033    0.24077    0.93555    1.000
    O41      O        0.91687    0.29808    0.02236    1.000
    O42      O        0.87632    0.72795    0.01152    1.000
    O43      O        0.05810    0.26133    0.13647    1.000
    O44      O        0.98032    0.34735    0.45420    1.000
    O45      O        0.74223    0.65897    0.00188    1.000
    O46      O        0.80585    0.35986    0.96395    1.000
    O47      O        0.91234    0.28004    0.36874    1.000
    O48      O        0.21388    0.26567    0.13496    1.000
    C81      C        0.82851    0.66432    0.01920    1.000
    C82      C        0.87347    0.58916    0.04864    1.000
    C83      C        0.84965    0.51289    0.02090    1.000
    H41      H        0.80300    0.50950    0.98690    1.000
    C84      C        0.89448    0.44202    0.04325    1.000
    C85      C        0.96088    0.44701    0.09584    1.000
    H42      H        0.99070    0.39950    0.11160    1.000
    C86      C        0.98320    0.52204    0.12509    1.000
    H43      H        0.02640    0.52480    0.16160    1.000
    C87      C        0.94153    0.59321    0.10043    1.000
    H44      H        0.95930    0.64400    0.11870    1.000
    C88      C        0.13562    0.27793    0.16326    1.000
    C89      C        0.05958    0.30679    0.27811    1.000
    H45      H        0.00530    0.28110    0.26160    1.000
    C90      C        0.13692    0.31429    0.23489    1.000
    C91      C        0.21650    0.35400    0.25987    1.000
    H46      H        0.26990    0.35780    0.23180    1.000
    C92      C        0.97952    0.32084    0.39289    1.000
    C93      C        0.06121    0.33673    0.34555    1.000
    C94      C        0.14030    0.37860    0.36895    1.000
    H47      H        0.14130    0.40050    0.41380    1.000
    C95      C        0.87196    0.36227    0.00868    1.000
    C96      C        0.21750    0.38780    0.32573    1.000
    H48      H        0.27020    0.41680    0.34110    1.000
    Mg13     Mg       0.52244    0.29117    0.95571    1.000
    Mg14     Mg       0.31033    0.25923    0.06445    1.000
    O49      O        0.41687    0.20192    0.97764    1.000
    O50      O        0.37632    0.77205    0.98848    1.000
    O51      O        0.55810    0.23867    0.86353    1.000
    O52      O        0.48032    0.15265    0.54580    1.000
    O53      O        0.24223    0.84103    0.99812    1.000
    O54      O        0.30585    0.14014    0.03605    1.000
    O55      O        0.41234    0.21996    0.63126    1.000
    O56      O        0.71388    0.23433    0.86504    1.000
    C97      C        0.32851    0.83568    0.98080    1.000
    C98      C        0.37347    0.91084    0.95136    1.000
    C99      C        0.34965    0.98711    0.97910    1.000
    H49      H        0.30300    0.99050    0.01310    1.000
    C100     C        0.39448    0.05798    0.95675    1.000
    C101     C        0.46088    0.05299    0.90416    1.000
    H50      H        0.49070    0.10050    0.88840    1.000
    C102     C        0.48320    0.97796    0.87491    1.000
    H51      H        0.52640    0.97520    0.83840    1.000
    C103     C        0.44153    0.90679    0.89957    1.000
    H52      H        0.45930    0.85600    0.88130    1.000
    C104     C        0.63562    0.22207    0.83674    1.000
    C105     C        0.55958    0.19321    0.72189    1.000
    H53      H        0.50530    0.21890    0.73840    1.000
    C106     C        0.63692    0.18571    0.76511    1.000
    C107     C        0.71650    0.14600    0.74013    1.000
    H54      H        0.76990    0.14220    0.76820    1.000
    C108     C        0.47952    0.17916    0.60711    1.000
    C109     C        0.56121    0.16327    0.65445    1.000
    C110     C        0.64030    0.12140    0.63105    1.000
    H55      H        0.64130    0.09950    0.58620    1.000
    C111     C        0.37196    0.13773    0.99132    1.000
    C112     C        0.71750    0.11220    0.67427    1.000
    H56      H        0.77020    0.08320    0.65890    1.000
    Mg15     Mg       0.97756    0.70883    0.45571    1.000
    Mg16     Mg       0.18967    0.74077    0.56445    1.000
    O57      O        0.08313    0.79808    0.47764    1.000
    O58      O        0.12368    0.22795    0.48848    1.000
    O59      O        0.94190    0.76133    0.36353    1.000
    O60      O        0.01968    0.84735    0.04580    1.000
    O61      O        0.25777    0.15897    0.49812    1.000
    O62      O        0.19415    0.85986    0.53605    1.000
    O63      O        0.08766    0.78004    0.13126    1.000
    O64      O        0.78612    0.76567    0.36504    1.000
    C113     C        0.17149    0.16432    0.48080    1.000
    C114     C        0.12653    0.08916    0.45136    1.000
    C115     C        0.15035    0.01289    0.47910    1.000
    H57      H        0.19700    0.00950    0.51310    1.000
    C116     C        0.10552    0.94202    0.45675    1.000
    C117     C        0.03912    0.94701    0.40416    1.000
    H58      H        0.00930    0.89950    0.38840    1.000
    C118     C        0.01680    0.02204    0.37491    1.000
    H59      H        0.97360    0.02480    0.33840    1.000
    C119     C        0.05847    0.09321    0.39957    1.000
    H60      H        0.04070    0.14400    0.38130    1.000
    C120     C        0.86438    0.77793    0.33674    1.000
    C121     C        0.94042    0.80679    0.22189    1.000
    H61      H        0.99470    0.78110    0.23840    1.000
    C122     C        0.86308    0.81429    0.26511    1.000
    C123     C        0.78350    0.85400    0.24013    1.000
    H62      H        0.73010    0.85780    0.26820    1.000
    C124     C        0.02048    0.82084    0.10711    1.000
    C125     C        0.93879    0.83673    0.15445    1.000
    C126     C        0.85970    0.87860    0.13105    1.000
    H63      H        0.85870    0.90050    0.08620    1.000
    C127     C        0.12804    0.86227    0.49132    1.000
    C128     C        0.78250    0.88780    0.17427    1.000
    H64      H        0.72980    0.91680    0.15890    1.000
