# CIF file generated by openbabel 3.1.0, see https://openbabel.org
data_I
_chemical_name_common 'image0'
_cell_length_a 23.47
_cell_length_b 22.051
_cell_length_c 52.645
_cell_angle_alpha 90
_cell_angle_beta 90
_cell_angle_gamma 90
_space_group_name_H-M_alt 'P 1'
_space_group_name_Hall 'P 1'
loop_
    _symmetry_equiv_pos_as_xyz
    x,y,z
loop_
    _atom_site_label
    _atom_site_type_symbol
    _atom_site_fract_x
    _atom_site_fract_y
    _atom_site_fract_z
    _atom_site_occupancy
    Cu1      Cu       0.46416    0.92484    0.13644    1.000
    C1       C        0.29264    0.99331    0.97558    1.000
    Cu2      Cu       0.44759    0.72608    0.10342    1.000
    C2       C        0.24750    0.94938    0.97937    1.000
    C3       C        0.24403    0.99262    0.95925    1.000
    C4       C        0.34357    0.01577    0.98336    1.000
    C5       C        0.22599    0.90205    0.99231    1.000
    C6       C        0.21457    0.01816    0.93971    1.000
    C7       C        0.44274    0.14267    0.96544    1.000
    H1       H        0.46770    0.17070    0.97340    1.000
    C8       C        0.37615    0.05928    0.96820    1.000
    C9       C        0.37165    0.05914    0.94153    1.000
    H2       H        0.34830    0.02980    0.93340    1.000
    C10      C        0.40110    0.10149    0.92701    1.000
    H3       H        0.39680    0.10210    0.90910    1.000
    C11      C        0.43675    0.14269    0.93883    1.000
    C12      C        0.46719    0.18589    0.92367    1.000
    N1       N        0.49238    0.21941    0.91170    1.000
    C13      C        0.41241    0.10217    0.97975    1.000
    H4       H        0.41580    0.10290    0.99770    1.000
    C14      C        0.36506    0.99649    0.00871    1.000
    C15      C        0.42198    0.97982    0.01241    1.000
    H5       H        0.44740    0.97970    0.99840    1.000
    C16      C        0.44173    0.96343    0.03625    1.000
    H6       H        0.48050    0.95260    0.03860    1.000
    C17      C        0.40422    0.96310    0.05652    1.000
    C18      C        0.42395    0.94792    0.08120    1.000
    N2       N        0.44053    0.93639    0.10127    1.000
    C19      C        0.34628    0.97968    0.05322    1.000
    H7       H        0.32070    0.97940    0.06720    1.000
    C20      C        0.32776    0.99623    0.02938    1.000
    H8       H        0.28910    0.00760    0.02700    1.000
    C21      C        0.25898    0.87016    0.01168    1.000
    C22      C        0.31803    0.85992    0.00778    1.000
    H9       H        0.33590    0.87400    0.99270    1.000
    C23      C        0.34987    0.82920    0.02602    1.000
    H10      H        0.38930    0.82190    0.02340    1.000
    C24      C        0.32331    0.80924    0.04811    1.000
    C25      C        0.35675    0.77639    0.06699    1.000
    N3       N        0.38328    0.75218    0.08169    1.000
    C26      C        0.26491    0.81720    0.05163    1.000
    H11      H        0.24670    0.80100    0.06620    1.000
    C27      C        0.23425    0.84837    0.03402    1.000
    H12      H        0.19490    0.85550    0.03700    1.000
    C28      C        0.16725    0.88173    0.98705    1.000
    C29      C        0.15420    0.81926    0.98624    1.000
    H13      H        0.18340    0.79030    0.98920    1.000
    C30      C        0.09890    0.79966    0.98120    1.000
    H14      H        0.09060    0.75750    0.98040    1.000
    C31      C        0.05560    0.84250    0.97736    1.000
    C32      C        0.99864    0.81980    0.97325    1.000
    N4       N        0.95335    0.80300    0.96951    1.000
    C33      C        0.06825    0.90354    0.97869    1.000
    H15      H        0.03870    0.93230    0.97620    1.000
    C34      C        0.12249    0.92360    0.98349    1.000
    H16      H        0.13000    0.96590    0.98440    1.000
    C35      C        0.16367    0.98655    0.92964    1.000
    C36      C        0.16493    0.92443    0.92650    1.000
    H17      H        0.19940    0.90310    0.92960    1.000
    C37      C        0.11700    0.89251    0.91893    1.000
    H18      H        0.11840    0.84970    0.91700    1.000
    C38      C        0.06617    0.92452    0.91409    1.000
    C39      C        0.01690    0.88997    0.90826    1.000
    N5       N        0.97990    0.85650    0.90423    1.000
    C40      C        0.06473    0.98804    0.91662    1.000
    H19      H        0.03050    0.00960    0.91330    1.000
    C41      C        0.11352    0.01917    0.92394    1.000
    H20      H        0.11310    0.06220    0.92510    1.000
    C42      C        0.23280    0.07678    0.92944    1.000
    C43      C        0.23088    0.08954    0.90308    1.000
    H21      H        0.21590    0.06020    0.89170    1.000
    C44      C        0.25039    0.14387    0.89392    1.000
    H22      H        0.24980    0.15160    0.87620    1.000
    C45      C        0.27115    0.18774    0.91055    1.000
    C46      C        0.29061    0.24462    0.90109    1.000
    N6       N        0.30602    0.29120    0.89356    1.000
    C47      C        0.27221    0.17683    0.93666    1.000
    H23      H        0.28580    0.20710    0.94800    1.000
    C48      C        0.25336    0.12170    0.94587    1.000
    H24      H        0.25430    0.11410    0.96360    1.000
    C49      C        0.69690    0.19829    0.22908    1.000
    C50      C        0.74135    0.20172    0.21057    1.000
    C51      C        0.74226    0.24051    0.23245    1.000
    C52      C        0.64615    0.17359    0.23708    1.000
    C53      C        0.76541    0.18213    0.18881    1.000
    C54      C        0.76461    0.28726    0.24565    1.000
    C55      C        0.62805    0.18304    0.26336    1.000
    C56      C        0.66903    0.18767    0.28264    1.000
    H25      H        0.70810    0.18280    0.27850    1.000
    C57      C        0.65393    0.19924    0.30764    1.000
    H26      H        0.68240    0.20280    0.32040    1.000
    C58      C        0.59689    0.20554    0.31390    1.000
    C59      C        0.57954    0.21739    0.33950    1.000
    N7       N        0.56733    0.22588    0.36023    1.000
    C60      C        0.55428    0.19889    0.29506    1.000
    H27      H        0.51510    0.20180    0.29950    1.000
    C61      C        0.57036    0.18803    0.27014    1.000
    H28      H        0.54190    0.18390    0.25740    1.000
    C62      C        0.61136    0.13897    0.21915    1.000
    C63      C        0.58183    0.08675    0.22663    1.000
    H29      H        0.58300    0.07430    0.24390    1.000
    C64      C        0.55102    0.05316    0.20934    1.000
    H30      H        0.53090    0.01810    0.21480    1.000
    C65      C        0.54949    0.07079    0.18376    1.000
    C66      C        0.51981    0.03306    0.16593    1.000
    N8       N        0.49766    0.99936    0.15248    1.000
    C67      C        0.57677    0.12384    0.17614    1.000
    H31      H        0.57400    0.13710    0.15900    1.000
    C68      C        0.60787    0.15718    0.19351    1.000
    H32      H        0.62710    0.19280    0.18810    1.000
    C69      C        0.74295    0.12767    0.17609    1.000
    C70      C        0.72050    0.07923    0.19032    1.000
    H33      H        0.72310    0.08010    0.20830    1.000
    C71      C        0.69494    0.03080    0.17854    1.000
    H34      H        0.67960    0.99840    0.18830    1.000
    C72      C        0.69167    0.02957    0.15220    1.000
    C73      C        0.66221    0.98063    0.13963    1.000
    N9       N        0.63745    0.94262    0.12952    1.000
    C74      C        0.71616    0.07634    0.13756    1.000
    H35      H        0.71460    0.07470    0.11950    1.000
    C75      C        0.74208    0.12389    0.14930    1.000
    H36      H        0.75970    0.15470    0.13940    1.000
    C76      C        0.81209    0.21786    0.17731    1.000
    C77      C        0.86074    0.19108    0.16746    1.000
    H37      H        0.86400    0.14810    0.16730    1.000
    C78      C        0.90485    0.22637    0.15787    1.000
    H38      H        0.93890    0.20800    0.15180    1.000
    C79      C        0.89832    0.28955    0.15726    1.000
    C80      C        0.94403    0.32746    0.14860    1.000
    N10      N        0.97872    0.36053    0.14212    1.000
    C81      C        0.84829    0.31668    0.16632    1.000
    H39      H        0.84340    0.35940    0.16540    1.000
    C82      C        0.80635    0.28071    0.17662    1.000
    H40      H        0.77300    0.29900    0.18340    1.000
    C83      C        0.82023    0.31441    0.23878    1.000
    C84      C        0.86591    0.27664    0.23157    1.000
    H41      H        0.86110    0.23390    0.23130    1.000
    C85      C        0.91789    0.30182    0.22483    1.000
    H42      H        0.94880    0.27650    0.22000    1.000
    C86      C        0.92429    0.36378    0.22525    1.000
    C87      C        0.97717    0.39180    0.21844    1.000
    N11      N        0.01930    0.41701    0.21240    1.000
    C88      C        0.87948    0.40235    0.23234    1.000
    H43      H        0.88430    0.44510    0.23220    1.000
    C89      C        0.82776    0.37668    0.23962    1.000
    H44      H        0.79750    0.40200    0.24520    1.000
    C90      C        0.73118    0.31538    0.26645    1.000
    C91      C        0.75721    0.33350    0.28884    1.000
    H45      H        0.79740    0.32980    0.29060    1.000
    C92      C        0.72530    0.35691    0.30874    1.000
    H46      H        0.74340    0.36910    0.32410    1.000
    C93      C        0.66628    0.36229    0.30598    1.000
    C94      C        0.63103    0.38414    0.32638    1.000
    N12      N        0.60146    0.40126    0.34196    1.000
    C95      C        0.63896    0.34484    0.28324    1.000
    H47      H        0.59890    0.34900    0.28130    1.000
    C96      C        0.67205    0.32143    0.26381    1.000
    H48      H        0.65430    0.30930    0.24840    1.000
    Cu3      Cu       0.03584    0.07516    0.63644    1.000
    C97      C        0.20736    0.00669    0.47558    1.000
    Cu4      Cu       0.05241    0.27392    0.60342    1.000
    C98      C        0.25250    0.05062    0.47937    1.000
    C99      C        0.25597    0.00738    0.45925    1.000
    C100     C        0.15643    0.98423    0.48336    1.000
    C101     C        0.27401    0.09795    0.49231    1.000
    C102     C        0.28543    0.98184    0.43971    1.000
    C103     C        0.05726    0.85733    0.46544    1.000
    H49      H        0.03230    0.82930    0.47340    1.000
    C104     C        0.12385    0.94072    0.46820    1.000
    C105     C        0.12835    0.94086    0.44153    1.000
    H50      H        0.15170    0.97020    0.43340    1.000
    C106     C        0.09890    0.89851    0.42701    1.000
    H51      H        0.10320    0.89790    0.40910    1.000
    C107     C        0.06325    0.85731    0.43883    1.000
    C108     C        0.03281    0.81411    0.42367    1.000
    N13      N        0.00762    0.78059    0.41170    1.000
    C109     C        0.08759    0.89783    0.47975    1.000
    H52      H        0.08420    0.89710    0.49770    1.000
    C110     C        0.13494    0.00351    0.50871    1.000
    C111     C        0.07802    0.02018    0.51241    1.000
    H53      H        0.05260    0.02030    0.49840    1.000
    C112     C        0.05827    0.03657    0.53625    1.000
    H54      H        0.01950    0.04740    0.53860    1.000
    C113     C        0.09578    0.03690    0.55652    1.000
    C114     C        0.07605    0.05208    0.58120    1.000
    N14      N        0.05947    0.06361    0.60127    1.000
    C115     C        0.15372    0.02032    0.55322    1.000
    H55      H        0.17930    0.02060    0.56720    1.000
    C116     C        0.17224    0.00377    0.52938    1.000
    H56      H        0.21090    0.99240    0.52700    1.000
    C117     C        0.24102    0.12984    0.51168    1.000
    C118     C        0.18197    0.14008    0.50778    1.000
    H57      H        0.16410    0.12600    0.49270    1.000
    C119     C        0.15013    0.17080    0.52602    1.000
    H58      H        0.11070    0.17810    0.52340    1.000
    C120     C        0.17669    0.19076    0.54811    1.000
    C121     C        0.14325    0.22361    0.56699    1.000
    N15      N        0.11672    0.24782    0.58169    1.000
    C122     C        0.23509    0.18280    0.55163    1.000
    H59      H        0.25330    0.19900    0.56620    1.000
    C123     C        0.26575    0.15163    0.53402    1.000
    H60      H        0.30510    0.14450    0.53700    1.000
    C124     C        0.33275    0.11827    0.48705    1.000
    C125     C        0.34580    0.18074    0.48624    1.000
    H61      H        0.31660    0.20970    0.48920    1.000
    C126     C        0.40110    0.20034    0.48120    1.000
    H62      H        0.40940    0.24250    0.48040    1.000
    C127     C        0.44440    0.15750    0.47736    1.000
    C128     C        0.50136    0.18020    0.47325    1.000
    N16      N        0.54665    0.19700    0.46951    1.000
    C129     C        0.43175    0.09646    0.47869    1.000
    H63      H        0.46130    0.06770    0.47620    1.000
    C130     C        0.37751    0.07640    0.48349    1.000
    H64      H        0.37000    0.03410    0.48440    1.000
    C131     C        0.33633    0.01345    0.42964    1.000
    C132     C        0.33507    0.07557    0.42650    1.000
    H65      H        0.30060    0.09690    0.42960    1.000
    C133     C        0.38300    0.10749    0.41893    1.000
    H66      H        0.38160    0.15030    0.41700    1.000
    C134     C        0.43383    0.07548    0.41409    1.000
    C135     C        0.48310    0.11003    0.40826    1.000
    N17      N        0.52010    0.14350    0.40423    1.000
    C136     C        0.43527    0.01196    0.41662    1.000
    H67      H        0.46950    0.99040    0.41330    1.000
    C137     C        0.38648    0.98083    0.42394    1.000
    H68      H        0.38690    0.93780    0.42510    1.000
    C138     C        0.26720    0.92322    0.42944    1.000
    C139     C        0.26912    0.91046    0.40308    1.000
    H69      H        0.28410    0.93980    0.39170    1.000
    C140     C        0.24961    0.85613    0.39392    1.000
    H70      H        0.25020    0.84840    0.37620    1.000
    C141     C        0.22885    0.81226    0.41055    1.000
    C142     C        0.20939    0.75538    0.40109    1.000
    N18      N        0.19398    0.70880    0.39356    1.000
    C143     C        0.22779    0.82317    0.43666    1.000
    H71      H        0.21420    0.79290    0.44800    1.000
    C144     C        0.24664    0.87830    0.44587    1.000
    H72      H        0.24570    0.88590    0.46360    1.000
    C145     C        0.80310    0.80171    0.72908    1.000
    C146     C        0.75865    0.79828    0.71057    1.000
    C147     C        0.75774    0.75949    0.73245    1.000
    C148     C        0.85385    0.82641    0.73708    1.000
    C149     C        0.73459    0.81787    0.68881    1.000
    C150     C        0.73539    0.71274    0.74565    1.000
    C151     C        0.87195    0.81696    0.76336    1.000
    C152     C        0.83097    0.81233    0.78264    1.000
    H73      H        0.79190    0.81720    0.77850    1.000
    C153     C        0.84607    0.80076    0.80764    1.000
    H74      H        0.81760    0.79720    0.82040    1.000
    C154     C        0.90311    0.79446    0.81390    1.000
    C155     C        0.92046    0.78261    0.83950    1.000
    N19      N        0.93267    0.77412    0.86023    1.000
    C156     C        0.94572    0.80111    0.79506    1.000
    H75      H        0.98490    0.79820    0.79950    1.000
    C157     C        0.92964    0.81197    0.77014    1.000
    H76      H        0.95810    0.81610    0.75740    1.000
    C158     C        0.88864    0.86103    0.71915    1.000
    C159     C        0.91817    0.91325    0.72663    1.000
    H77      H        0.91700    0.92570    0.74390    1.000
    C160     C        0.94898    0.94684    0.70934    1.000
    H78      H        0.96910    0.98190    0.71480    1.000
    C161     C        0.95051    0.92921    0.68376    1.000
    C162     C        0.98019    0.96694    0.66593    1.000
    N20      N        0.00234    0.00064    0.65248    1.000
    C163     C        0.92323    0.87616    0.67614    1.000
    H79      H        0.92600    0.86290    0.65900    1.000
    C164     C        0.89213    0.84282    0.69351    1.000
    H80      H        0.87290    0.80720    0.68810    1.000
    C165     C        0.75705    0.87233    0.67609    1.000
    C166     C        0.77950    0.92077    0.69032    1.000
    H81      H        0.77690    0.91990    0.70830    1.000
    C167     C        0.80506    0.96920    0.67854    1.000
    H82      H        0.82040    0.00160    0.68830    1.000
    C168     C        0.80833    0.97043    0.65220    1.000
    C169     C        0.83779    0.01937    0.63963    1.000
    N21      N        0.86255    0.05738    0.62952    1.000
    C170     C        0.78384    0.92366    0.63756    1.000
    H83      H        0.78540    0.92530    0.61950    1.000
    C171     C        0.75792    0.87611    0.64930    1.000
    H84      H        0.74030    0.84530    0.63940    1.000
    C172     C        0.68791    0.78214    0.67731    1.000
    C173     C        0.63926    0.80892    0.66746    1.000
    H85      H        0.63600    0.85190    0.66730    1.000
    C174     C        0.59515    0.77363    0.65787    1.000
    H86      H        0.56110    0.79200    0.65180    1.000
    C175     C        0.60168    0.71045    0.65726    1.000
    C176     C        0.55597    0.67254    0.64860    1.000
    N22      N        0.52128    0.63947    0.64212    1.000
    C177     C        0.65171    0.68332    0.66632    1.000
    H87      H        0.65660    0.64060    0.66540    1.000
    C178     C        0.69365    0.71929    0.67662    1.000
    H88      H        0.72700    0.70100    0.68340    1.000
    C179     C        0.67977    0.68559    0.73878    1.000
    C180     C        0.63409    0.72336    0.73157    1.000
    H89      H        0.63890    0.76610    0.73130    1.000
    C181     C        0.58211    0.69818    0.72483    1.000
    H90      H        0.55120    0.72350    0.72000    1.000
    C182     C        0.57571    0.63622    0.72525    1.000
    C183     C        0.52283    0.60820    0.71844    1.000
    N23      N        0.48070    0.58299    0.71240    1.000
    C184     C        0.62052    0.59765    0.73234    1.000
    H91      H        0.61570    0.55490    0.73220    1.000
    C185     C        0.67224    0.62332    0.73962    1.000
    H92      H        0.70250    0.59800    0.74520    1.000
    C186     C        0.76882    0.68462    0.76645    1.000
    C187     C        0.74279    0.66650    0.78884    1.000
    H93      H        0.70260    0.67020    0.79060    1.000
    C188     C        0.77470    0.64309    0.80874    1.000
    H94      H        0.75660    0.63090    0.82410    1.000
    C189     C        0.83372    0.63771    0.80598    1.000
    C190     C        0.86897    0.61586    0.82638    1.000
    N24      N        0.89854    0.59874    0.84196    1.000
    C191     C        0.86104    0.65516    0.78324    1.000
    H95      H        0.90110    0.65100    0.78130    1.000
    C192     C        0.82795    0.67857    0.76381    1.000
    H96      H        0.84570    0.69070    0.74840    1.000
    Cu5      Cu       0.53584    0.42484    0.36356    1.000
    C193     C        0.70736    0.49331    0.52442    1.000
    Cu6      Cu       0.55241    0.22608    0.39658    1.000
    C194     C        0.75250    0.44938    0.52063    1.000
    C195     C        0.75597    0.49262    0.54075    1.000
    C196     C        0.65643    0.51577    0.51664    1.000
    C197     C        0.77401    0.40205    0.50769    1.000
    C198     C        0.78543    0.51816    0.56029    1.000
    C199     C        0.55726    0.64267    0.53456    1.000
    H97      H        0.53230    0.67070    0.52660    1.000
    C200     C        0.62385    0.55928    0.53180    1.000
    C201     C        0.62835    0.55914    0.55847    1.000
    H98      H        0.65170    0.52980    0.56660    1.000
    C202     C        0.59890    0.60149    0.57299    1.000
    H99      H        0.60320    0.60210    0.59090    1.000
    C203     C        0.56325    0.64269    0.56117    1.000
    C204     C        0.53281    0.68589    0.57633    1.000
    N25      N        0.50762    0.71941    0.58830    1.000
    C205     C        0.58759    0.60217    0.52025    1.000
    H100     H        0.58420    0.60290    0.50230    1.000
    C206     C        0.63494    0.49649    0.49129    1.000
    C207     C        0.57802    0.47982    0.48759    1.000
    H101     H        0.55260    0.47970    0.50160    1.000
    C208     C        0.55827    0.46343    0.46375    1.000
    H102     H        0.51950    0.45260    0.46140    1.000
    C209     C        0.59578    0.46310    0.44348    1.000
    C210     C        0.57605    0.44792    0.41880    1.000
    N26      N        0.55947    0.43639    0.39873    1.000
    C211     C        0.65372    0.47968    0.44678    1.000
    H103     H        0.67930    0.47940    0.43280    1.000
    C212     C        0.67224    0.49623    0.47062    1.000
    H104     H        0.71090    0.50760    0.47300    1.000
    C213     C        0.74102    0.37016    0.48832    1.000
    C214     C        0.68197    0.35992    0.49222    1.000
    H105     H        0.66410    0.37400    0.50730    1.000
    C215     C        0.65013    0.32920    0.47398    1.000
    H106     H        0.61070    0.32190    0.47660    1.000
    C216     C        0.67669    0.30924    0.45189    1.000
    C217     C        0.64325    0.27639    0.43301    1.000
    N27      N        0.61672    0.25218    0.41831    1.000
    C218     C        0.73509    0.31720    0.44837    1.000
    H107     H        0.75330    0.30100    0.43380    1.000
    C219     C        0.76575    0.34837    0.46598    1.000
    H108     H        0.80510    0.35550    0.46300    1.000
    C220     C        0.83275    0.38173    0.51295    1.000
    C221     C        0.84580    0.31926    0.51376    1.000
    H109     H        0.81660    0.29030    0.51080    1.000
    C222     C        0.90110    0.29966    0.51880    1.000
    H110     H        0.90940    0.25750    0.51960    1.000
    C223     C        0.94440    0.34250    0.52264    1.000
    C224     C        0.00136    0.31980    0.52675    1.000
    N28      N        0.04665    0.30300    0.53049    1.000
    C225     C        0.93175    0.40354    0.52131    1.000
    H111     H        0.96130    0.43230    0.52380    1.000
    C226     C        0.87751    0.42360    0.51651    1.000
    H112     H        0.87000    0.46590    0.51560    1.000
    C227     C        0.83633    0.48655    0.57036    1.000
    C228     C        0.83507    0.42443    0.57350    1.000
    H113     H        0.80060    0.40310    0.57040    1.000
    C229     C        0.88300    0.39251    0.58107    1.000
    H114     H        0.88160    0.34970    0.58300    1.000
    C230     C        0.93383    0.42452    0.58591    1.000
    C231     C        0.98310    0.38997    0.59174    1.000
    N29      N        0.02010    0.35650    0.59577    1.000
    C232     C        0.93527    0.48804    0.58338    1.000
    H115     H        0.96950    0.50960    0.58670    1.000
    C233     C        0.88648    0.51917    0.57606    1.000
    H116     H        0.88690    0.56220    0.57490    1.000
    C234     C        0.76720    0.57678    0.57056    1.000
    C235     C        0.76912    0.58954    0.59692    1.000
    H117     H        0.78410    0.56020    0.60830    1.000
    C236     C        0.74961    0.64387    0.60608    1.000
    H118     H        0.75020    0.65160    0.62380    1.000
    C237     C        0.72885    0.68774    0.58945    1.000
    C238     C        0.70939    0.74462    0.59891    1.000
    N30      N        0.69398    0.79120    0.60644    1.000
    C239     C        0.72779    0.67683    0.56334    1.000
    H119     H        0.71420    0.70710    0.55200    1.000
    C240     C        0.74664    0.62170    0.55413    1.000
    H120     H        0.74570    0.61410    0.53640    1.000
    C241     C        0.30310    0.69829    0.27092    1.000
    C242     C        0.25865    0.70172    0.28943    1.000
    C243     C        0.25774    0.74051    0.26755    1.000
    C244     C        0.35385    0.67359    0.26292    1.000
    C245     C        0.23459    0.68213    0.31119    1.000
    C246     C        0.23539    0.78726    0.25435    1.000
    C247     C        0.37195    0.68304    0.23664    1.000
    C248     C        0.33097    0.68767    0.21736    1.000
    H121     H        0.29190    0.68280    0.22150    1.000
    C249     C        0.34607    0.69924    0.19236    1.000
    H122     H        0.31760    0.70280    0.17960    1.000
    C250     C        0.40311    0.70554    0.18610    1.000
    C251     C        0.42046    0.71739    0.16050    1.000
    N31      N        0.43267    0.72588    0.13977    1.000
    C252     C        0.44572    0.69889    0.20494    1.000
    H123     H        0.48490    0.70180    0.20050    1.000
    C253     C        0.42964    0.68803    0.22986    1.000
    H124     H        0.45810    0.68390    0.24260    1.000
    C254     C        0.38864    0.63897    0.28085    1.000
    C255     C        0.41817    0.58675    0.27337    1.000
    H125     H        0.41700    0.57430    0.25610    1.000
    C256     C        0.44898    0.55316    0.29066    1.000
    H126     H        0.46910    0.51810    0.28520    1.000
    C257     C        0.45051    0.57079    0.31624    1.000
    C258     C        0.48019    0.53306    0.33407    1.000
    N32      N        0.50234    0.49936    0.34752    1.000
    C259     C        0.42323    0.62384    0.32386    1.000
    H127     H        0.42600    0.63710    0.34100    1.000
    C260     C        0.39213    0.65718    0.30649    1.000
    H128     H        0.37290    0.69280    0.31190    1.000
    C261     C        0.25705    0.62767    0.32391    1.000
    C262     C        0.27950    0.57923    0.30968    1.000
    H129     H        0.27690    0.58010    0.29170    1.000
    C263     C        0.30506    0.53080    0.32146    1.000
    H130     H        0.32040    0.49840    0.31170    1.000
    C264     C        0.30833    0.52957    0.34780    1.000
    C265     C        0.33779    0.48063    0.36037    1.000
    N33      N        0.36255    0.44262    0.37048    1.000
    C266     C        0.28384    0.57634    0.36244    1.000
    H131     H        0.28540    0.57470    0.38050    1.000
    C267     C        0.25792    0.62389    0.35070    1.000
    H132     H        0.24030    0.65470    0.36060    1.000
    C268     C        0.18791    0.71786    0.32269    1.000
    C269     C        0.13926    0.69108    0.33254    1.000
    H133     H        0.13600    0.64810    0.33270    1.000
    C270     C        0.09515    0.72637    0.34213    1.000
    H134     H        0.06110    0.70800    0.34820    1.000
    C271     C        0.10168    0.78955    0.34274    1.000
    C272     C        0.05597    0.82746    0.35140    1.000
    N34      N        0.02128    0.86053    0.35788    1.000
    C273     C        0.15171    0.81668    0.33368    1.000
    H135     H        0.15660    0.85940    0.33460    1.000
    C274     C        0.19365    0.78071    0.32338    1.000
    H136     H        0.22700    0.79900    0.31660    1.000
    C275     C        0.17977    0.81441    0.26122    1.000
    C276     C        0.13409    0.77664    0.26843    1.000
    H137     H        0.13890    0.73390    0.26870    1.000
    C277     C        0.08211    0.80182    0.27517    1.000
    H138     H        0.05120    0.77650    0.28000    1.000
    C278     C        0.07571    0.86378    0.27475    1.000
    C279     C        0.02283    0.89180    0.28156    1.000
    N35      N        0.98070    0.91701    0.28760    1.000
    C280     C        0.12052    0.90235    0.26766    1.000
    H139     H        0.11570    0.94510    0.26780    1.000
    C281     C        0.17224    0.87668    0.26038    1.000
    H140     H        0.20250    0.90200    0.25480    1.000
    C282     C        0.26882    0.81538    0.23355    1.000
    C283     C        0.24279    0.83350    0.21116    1.000
    H141     H        0.20260    0.82980    0.20940    1.000
    C284     C        0.27470    0.85691    0.19126    1.000
    H142     H        0.25660    0.86910    0.17590    1.000
    C285     C        0.33372    0.86229    0.19402    1.000
    C286     C        0.36897    0.88414    0.17362    1.000
    N36      N        0.39854    0.90126    0.15804    1.000
    C287     C        0.36104    0.84484    0.21676    1.000
    H143     H        0.40110    0.84900    0.21870    1.000
    C288     C        0.32795    0.82143    0.23619    1.000
    H144     H        0.34570    0.80930    0.25160    1.000
    Cu7      Cu       0.96416    0.57516    0.86356    1.000
    C289     C        0.79264    0.50669    0.02442    1.000
    Cu8      Cu       0.94759    0.77392    0.89658    1.000
    C290     C        0.74750    0.55062    0.02063    1.000
    C291     C        0.74403    0.50738    0.04075    1.000
    C292     C        0.84357    0.48423    0.01664    1.000
    C293     C        0.72599    0.59795    0.00769    1.000
    C294     C        0.71457    0.48184    0.06029    1.000
    C295     C        0.94274    0.35733    0.03456    1.000
    H145     H        0.96770    0.32930    0.02660    1.000
    C296     C        0.87615    0.44072    0.03180    1.000
    C297     C        0.87165    0.44086    0.05847    1.000
    H146     H        0.84830    0.47020    0.06660    1.000
    C298     C        0.90110    0.39851    0.07299    1.000
    H147     H        0.89680    0.39790    0.09090    1.000
    C299     C        0.93675    0.35731    0.06117    1.000
    C300     C        0.96719    0.31411    0.07633    1.000
    N37      N        0.99238    0.28059    0.08830    1.000
    C301     C        0.91241    0.39783    0.02025    1.000
    H148     H        0.91580    0.39710    0.00230    1.000
    C302     C        0.86506    0.50351    0.99129    1.000
    C303     C        0.92198    0.52018    0.98759    1.000
    H149     H        0.94740    0.52030    0.00160    1.000
    C304     C        0.94173    0.53657    0.96375    1.000
    H150     H        0.98050    0.54740    0.96140    1.000
    C305     C        0.90422    0.53690    0.94348    1.000
    C306     C        0.92395    0.55208    0.91880    1.000
    N38      N        0.94053    0.56361    0.89873    1.000
    C307     C        0.84628    0.52032    0.94678    1.000
    H151     H        0.82070    0.52060    0.93280    1.000
    C308     C        0.82776    0.50377    0.97062    1.000
    H152     H        0.78910    0.49240    0.97300    1.000
    C309     C        0.75898    0.62984    0.98832    1.000
    C310     C        0.81803    0.64008    0.99222    1.000
    H153     H        0.83590    0.62600    0.00730    1.000
    C311     C        0.84987    0.67080    0.97398    1.000
    H154     H        0.88930    0.67810    0.97660    1.000
    C312     C        0.82331    0.69076    0.95189    1.000
    C313     C        0.85675    0.72361    0.93301    1.000
    N39      N        0.88328    0.74782    0.91831    1.000
    C314     C        0.76491    0.68280    0.94837    1.000
    H155     H        0.74670    0.69900    0.93380    1.000
    C315     C        0.73425    0.65163    0.96598    1.000
    H156     H        0.69490    0.64450    0.96300    1.000
    C316     C        0.66725    0.61827    0.01295    1.000
    C317     C        0.65420    0.68074    0.01376    1.000
    H157     H        0.68340    0.70970    0.01080    1.000
    C318     C        0.59890    0.70034    0.01880    1.000
    H158     H        0.59060    0.74250    0.01960    1.000
    C319     C        0.55560    0.65750    0.02264    1.000
    C320     C        0.49864    0.68020    0.02675    1.000
    N40      N        0.45335    0.69700    0.03049    1.000
    C321     C        0.56825    0.59646    0.02131    1.000
    H159     H        0.53870    0.56770    0.02380    1.000
    C322     C        0.62249    0.57640    0.01651    1.000
    H160     H        0.63000    0.53410    0.01560    1.000
    C323     C        0.66367    0.51345    0.07036    1.000
    C324     C        0.66493    0.57557    0.07350    1.000
    H161     H        0.69940    0.59690    0.07040    1.000
    C325     C        0.61700    0.60749    0.08107    1.000
    H162     H        0.61840    0.65030    0.08300    1.000
    C326     C        0.56617    0.57548    0.08591    1.000
    C327     C        0.51690    0.61003    0.09174    1.000
    N41      N        0.47990    0.64350    0.09577    1.000
    C328     C        0.56473    0.51196    0.08338    1.000
    H163     H        0.53050    0.49040    0.08670    1.000
    C329     C        0.61352    0.48083    0.07606    1.000
    H164     H        0.61310    0.43780    0.07490    1.000
    C330     C        0.73280    0.42322    0.07056    1.000
    C331     C        0.73088    0.41046    0.09692    1.000
    H165     H        0.71590    0.43980    0.10830    1.000
    C332     C        0.75039    0.35613    0.10608    1.000
    H166     H        0.74980    0.34840    0.12380    1.000
    C333     C        0.77115    0.31226    0.08945    1.000
    C334     C        0.79061    0.25538    0.09891    1.000
    N42      N        0.80602    0.20880    0.10644    1.000
    C335     C        0.77221    0.32317    0.06334    1.000
    H167     H        0.78580    0.29290    0.05200    1.000
    C336     C        0.75336    0.37830    0.05413    1.000
    H168     H        0.75430    0.38590    0.03640    1.000
    C337     C        0.19690    0.30171    0.77092    1.000
    C338     C        0.24135    0.29828    0.78943    1.000
    C339     C        0.24226    0.25949    0.76755    1.000
    C340     C        0.14615    0.32641    0.76292    1.000
    C341     C        0.26541    0.31787    0.81119    1.000
    C342     C        0.26461    0.21274    0.75435    1.000
    C343     C        0.12805    0.31696    0.73664    1.000
    C344     C        0.16903    0.31233    0.71736    1.000
    H169     H        0.20810    0.31720    0.72150    1.000
    C345     C        0.15393    0.30076    0.69236    1.000
    H170     H        0.18240    0.29720    0.67960    1.000
    C346     C        0.09689    0.29446    0.68610    1.000
    C347     C        0.07954    0.28261    0.66050    1.000
    N43      N        0.06733    0.27412    0.63977    1.000
    C348     C        0.05428    0.30111    0.70494    1.000
    H171     H        0.01510    0.29820    0.70050    1.000
    C349     C        0.07036    0.31197    0.72986    1.000
    H172     H        0.04190    0.31610    0.74260    1.000
    C350     C        0.11136    0.36103    0.78085    1.000
    C351     C        0.08183    0.41325    0.77337    1.000
    H173     H        0.08300    0.42570    0.75610    1.000
    C352     C        0.05102    0.44684    0.79066    1.000
    H174     H        0.03090    0.48190    0.78520    1.000
    C353     C        0.04949    0.42921    0.81624    1.000
    C354     C        0.01981    0.46694    0.83407    1.000
    N44      N        0.99766    0.50064    0.84752    1.000
    C355     C        0.07677    0.37616    0.82386    1.000
    H175     H        0.07400    0.36290    0.84100    1.000
    C356     C        0.10787    0.34282    0.80649    1.000
    H176     H        0.12710    0.30720    0.81190    1.000
    C357     C        0.24295    0.37233    0.82391    1.000
    C358     C        0.22050    0.42077    0.80968    1.000
    H177     H        0.22310    0.41990    0.79170    1.000
    C359     C        0.19494    0.46920    0.82146    1.000
    H178     H        0.17960    0.50160    0.81170    1.000
    C360     C        0.19167    0.47043    0.84780    1.000
    C361     C        0.16221    0.51937    0.86037    1.000
    N45      N        0.13745    0.55738    0.87048    1.000
    C362     C        0.21616    0.42366    0.86244    1.000
    H179     H        0.21460    0.42530    0.88050    1.000
    C363     C        0.24208    0.37611    0.85070    1.000
    H180     H        0.25970    0.34530    0.86060    1.000
    C364     C        0.31209    0.28214    0.82269    1.000
    C365     C        0.36074    0.30892    0.83254    1.000
    H181     H        0.36400    0.35190    0.83270    1.000
    C366     C        0.40485    0.27363    0.84213    1.000
    H182     H        0.43890    0.29200    0.84820    1.000
    C367     C        0.39832    0.21045    0.84274    1.000
    C368     C        0.44403    0.17254    0.85140    1.000
    N46      N        0.47872    0.13947    0.85788    1.000
    C369     C        0.34829    0.18332    0.83368    1.000
    H183     H        0.34340    0.14060    0.83460    1.000
    C370     C        0.30635    0.21929    0.82338    1.000
    H184     H        0.27300    0.20100    0.81660    1.000
    C371     C        0.32023    0.18559    0.76122    1.000
    C372     C        0.36591    0.22336    0.76843    1.000
    H185     H        0.36110    0.26610    0.76870    1.000
    C373     C        0.41789    0.19818    0.77517    1.000
    H186     H        0.44880    0.22350    0.78000    1.000
    C374     C        0.42429    0.13622    0.77475    1.000
    C375     C        0.47717    0.10820    0.78156    1.000
    N47      N        0.51930    0.08299    0.78760    1.000
    C376     C        0.37948    0.09765    0.76766    1.000
    H187     H        0.38430    0.05490    0.76780    1.000
    C377     C        0.32776    0.12332    0.76038    1.000
    H188     H        0.29750    0.09800    0.75480    1.000
    C378     C        0.23118    0.18462    0.73355    1.000
    C379     C        0.25721    0.16650    0.71116    1.000
    H189     H        0.29740    0.17020    0.70940    1.000
    C380     C        0.22530    0.14309    0.69126    1.000
    H190     H        0.24340    0.13090    0.67590    1.000
    C381     C        0.16628    0.13771    0.69402    1.000
    C382     C        0.13103    0.11586    0.67362    1.000
    N48      N        0.10146    0.09874    0.65804    1.000
    C383     C        0.13896    0.15516    0.71676    1.000
    H191     H        0.09890    0.15100    0.71870    1.000
    C384     C        0.17205    0.17857    0.73619    1.000
    H192     H        0.15430    0.19070    0.75160    1.000
    Cu9      Cu       0.53584    0.07516    0.86356    1.000
    C385     C        0.70736    0.00669    0.02442    1.000
    Cu10     Cu       0.55241    0.27392    0.89658    1.000
    C386     C        0.75250    0.05062    0.02063    1.000
    C387     C        0.75597    0.00738    0.04075    1.000
    C388     C        0.65643    0.98423    0.01664    1.000
    C389     C        0.77401    0.09795    0.00769    1.000
    C390     C        0.78543    0.98184    0.06029    1.000
    C391     C        0.55726    0.85733    0.03456    1.000
    H193     H        0.53230    0.82930    0.02660    1.000
    C392     C        0.62385    0.94072    0.03180    1.000
    C393     C        0.62835    0.94086    0.05847    1.000
    H194     H        0.65170    0.97020    0.06660    1.000
    C394     C        0.59890    0.89851    0.07299    1.000
    H195     H        0.60320    0.89790    0.09090    1.000
    C395     C        0.56325    0.85731    0.06117    1.000
    C396     C        0.53281    0.81411    0.07633    1.000
    N49      N        0.50762    0.78059    0.08830    1.000
    C397     C        0.58759    0.89783    0.02025    1.000
    H196     H        0.58420    0.89710    0.00230    1.000
    C398     C        0.63494    0.00351    0.99129    1.000
    C399     C        0.57802    0.02018    0.98759    1.000
    H197     H        0.55260    0.02030    0.00160    1.000
    C400     C        0.55827    0.03657    0.96375    1.000
    H198     H        0.51950    0.04740    0.96140    1.000
    C401     C        0.59578    0.03690    0.94348    1.000
    C402     C        0.57605    0.05208    0.91880    1.000
    N50      N        0.55947    0.06361    0.89873    1.000
    C403     C        0.65372    0.02032    0.94678    1.000
    H199     H        0.67930    0.02060    0.93280    1.000
    C404     C        0.67224    0.00377    0.97062    1.000
    H200     H        0.71090    0.99240    0.97300    1.000
    C405     C        0.74102    0.12984    0.98832    1.000
    C406     C        0.68197    0.14008    0.99222    1.000
    H201     H        0.66410    0.12600    0.00730    1.000
    C407     C        0.65013    0.17080    0.97398    1.000
    H202     H        0.61070    0.17810    0.97660    1.000
    C408     C        0.67669    0.19076    0.95189    1.000
    C409     C        0.64325    0.22361    0.93301    1.000
    N51      N        0.61672    0.24782    0.91831    1.000
    C410     C        0.73509    0.18280    0.94837    1.000
    H203     H        0.75330    0.19900    0.93380    1.000
    C411     C        0.76575    0.15163    0.96598    1.000
    H204     H        0.80510    0.14450    0.96300    1.000
    C412     C        0.83275    0.11827    0.01295    1.000
    C413     C        0.84580    0.18074    0.01376    1.000
    H205     H        0.81660    0.20970    0.01080    1.000
    C414     C        0.90110    0.20034    0.01880    1.000
    H206     H        0.90940    0.24250    0.01960    1.000
    C415     C        0.94440    0.15750    0.02264    1.000
    C416     C        0.00136    0.18020    0.02675    1.000
    N52      N        0.04665    0.19700    0.03049    1.000
    C417     C        0.93175    0.09646    0.02131    1.000
    H207     H        0.96130    0.06770    0.02380    1.000
    C418     C        0.87751    0.07640    0.01651    1.000
    H208     H        0.87000    0.03410    0.01560    1.000
    C419     C        0.83633    0.01345    0.07036    1.000
    C420     C        0.83507    0.07557    0.07350    1.000
    H209     H        0.80060    0.09690    0.07040    1.000
    C421     C        0.88300    0.10749    0.08107    1.000
    H210     H        0.88160    0.15030    0.08300    1.000
    C422     C        0.93383    0.07548    0.08591    1.000
    C423     C        0.98310    0.11003    0.09174    1.000
    N53      N        0.02010    0.14350    0.09577    1.000
    C424     C        0.93527    0.01196    0.08338    1.000
    H211     H        0.96950    0.99040    0.08670    1.000
    C425     C        0.88648    0.98083    0.07606    1.000
    H212     H        0.88690    0.93780    0.07490    1.000
    C426     C        0.76720    0.92322    0.07056    1.000
    C427     C        0.76912    0.91046    0.09692    1.000
    H213     H        0.78410    0.93980    0.10830    1.000
    C428     C        0.74961    0.85613    0.10608    1.000
    H214     H        0.75020    0.84840    0.12380    1.000
    C429     C        0.72885    0.81226    0.08945    1.000
    C430     C        0.70939    0.75538    0.09891    1.000
    N54      N        0.69398    0.70880    0.10644    1.000
    C431     C        0.72779    0.82317    0.06334    1.000
    H215     H        0.71420    0.79290    0.05200    1.000
    C432     C        0.74664    0.87830    0.05413    1.000
    H216     H        0.74570    0.88590    0.03640    1.000
    C433     C        0.30310    0.80171    0.77092    1.000
    C434     C        0.25865    0.79828    0.78943    1.000
    C435     C        0.25774    0.75949    0.76755    1.000
    C436     C        0.35385    0.82641    0.76292    1.000
    C437     C        0.23459    0.81787    0.81119    1.000
    C438     C        0.23539    0.71274    0.75435    1.000
    C439     C        0.37195    0.81696    0.73664    1.000
    C440     C        0.33097    0.81233    0.71736    1.000
    H217     H        0.29190    0.81720    0.72150    1.000
    C441     C        0.34607    0.80076    0.69236    1.000
    H218     H        0.31760    0.79720    0.67960    1.000
    C442     C        0.40311    0.79446    0.68610    1.000
    C443     C        0.42046    0.78261    0.66050    1.000
    N55      N        0.43267    0.77412    0.63977    1.000
    C444     C        0.44572    0.80111    0.70494    1.000
    H219     H        0.48490    0.79820    0.70050    1.000
    C445     C        0.42964    0.81197    0.72986    1.000
    H220     H        0.45810    0.81610    0.74260    1.000
    C446     C        0.38864    0.86103    0.78085    1.000
    C447     C        0.41817    0.91325    0.77337    1.000
    H221     H        0.41700    0.92570    0.75610    1.000
    C448     C        0.44898    0.94684    0.79066    1.000
    H222     H        0.46910    0.98190    0.78520    1.000
    C449     C        0.45051    0.92921    0.81624    1.000
    C450     C        0.48019    0.96694    0.83407    1.000
    N56      N        0.50234    0.00064    0.84752    1.000
    C451     C        0.42323    0.87616    0.82386    1.000
    H223     H        0.42600    0.86290    0.84100    1.000
    C452     C        0.39213    0.84282    0.80649    1.000
    H224     H        0.37290    0.80720    0.81190    1.000
    C453     C        0.25705    0.87233    0.82391    1.000
    C454     C        0.27950    0.92077    0.80968    1.000
    H225     H        0.27690    0.91990    0.79170    1.000
    C455     C        0.30506    0.96920    0.82146    1.000
    H226     H        0.32040    0.00160    0.81170    1.000
    C456     C        0.30833    0.97043    0.84780    1.000
    C457     C        0.33779    0.01937    0.86037    1.000
    N57      N        0.36255    0.05738    0.87048    1.000
    C458     C        0.28384    0.92366    0.86244    1.000
    H227     H        0.28540    0.92530    0.88050    1.000
    C459     C        0.25792    0.87611    0.85070    1.000
    H228     H        0.24030    0.84530    0.86060    1.000
    C460     C        0.18791    0.78214    0.82269    1.000
    C461     C        0.13926    0.80892    0.83254    1.000
    H229     H        0.13600    0.85190    0.83270    1.000
    C462     C        0.09515    0.77363    0.84213    1.000
    H230     H        0.06110    0.79200    0.84820    1.000
    C463     C        0.10168    0.71045    0.84274    1.000
    C464     C        0.05597    0.67254    0.85140    1.000
    N58      N        0.02128    0.63947    0.85788    1.000
    C465     C        0.15171    0.68332    0.83368    1.000
    H231     H        0.15660    0.64060    0.83460    1.000
    C466     C        0.19365    0.71929    0.82338    1.000
    H232     H        0.22700    0.70100    0.81660    1.000
    C467     C        0.17977    0.68559    0.76122    1.000
    C468     C        0.13409    0.72336    0.76843    1.000
    H233     H        0.13890    0.76610    0.76870    1.000
    C469     C        0.08211    0.69818    0.77517    1.000
    H234     H        0.05120    0.72350    0.78000    1.000
    C470     C        0.07571    0.63622    0.77475    1.000
    C471     C        0.02283    0.60820    0.78156    1.000
    N59      N        0.98070    0.58299    0.78760    1.000
    C472     C        0.12052    0.59765    0.76766    1.000
    H235     H        0.11570    0.55490    0.76780    1.000
    C473     C        0.17224    0.62332    0.76038    1.000
    H236     H        0.20250    0.59800    0.75480    1.000
    C474     C        0.26882    0.68462    0.73355    1.000
    C475     C        0.24279    0.66650    0.71116    1.000
    H237     H        0.20260    0.67020    0.70940    1.000
    C476     C        0.27470    0.64309    0.69126    1.000
    H238     H        0.25660    0.63090    0.67590    1.000
    C477     C        0.33372    0.63771    0.69402    1.000
    C478     C        0.36897    0.61586    0.67362    1.000
    N60      N        0.39854    0.59874    0.65804    1.000
    C479     C        0.36104    0.65516    0.71676    1.000
    H239     H        0.40110    0.65100    0.71870    1.000
    C480     C        0.32795    0.67857    0.73619    1.000
    H240     H        0.34570    0.69070    0.75160    1.000
    Cu11     Cu       0.96416    0.92484    0.36356    1.000
    C481     C        0.79264    0.99331    0.52442    1.000
    Cu12     Cu       0.94759    0.72608    0.39658    1.000
    C482     C        0.74750    0.94938    0.52063    1.000
    C483     C        0.74403    0.99262    0.54075    1.000
    C484     C        0.84357    0.01577    0.51664    1.000
    C485     C        0.72599    0.90205    0.50769    1.000
    C486     C        0.71457    0.01816    0.56029    1.000
    C487     C        0.94274    0.14267    0.53456    1.000
    H241     H        0.96770    0.17070    0.52660    1.000
    C488     C        0.87615    0.05928    0.53180    1.000
    C489     C        0.87165    0.05914    0.55847    1.000
    H242     H        0.84830    0.02980    0.56660    1.000
    C490     C        0.90110    0.10149    0.57299    1.000
    H243     H        0.89680    0.10210    0.59090    1.000
    C491     C        0.93675    0.14269    0.56117    1.000
    C492     C        0.96719    0.18589    0.57633    1.000
    N61      N        0.99238    0.21941    0.58830    1.000
    C493     C        0.91241    0.10217    0.52025    1.000
    H244     H        0.91580    0.10290    0.50230    1.000
    C494     C        0.86506    0.99649    0.49129    1.000
    C495     C        0.92198    0.97982    0.48759    1.000
    H245     H        0.94740    0.97970    0.50160    1.000
    C496     C        0.94173    0.96343    0.46375    1.000
    H246     H        0.98050    0.95260    0.46140    1.000
    C497     C        0.90422    0.96310    0.44348    1.000
    C498     C        0.92395    0.94792    0.41880    1.000
    N62      N        0.94053    0.93639    0.39873    1.000
    C499     C        0.84628    0.97968    0.44678    1.000
    H247     H        0.82070    0.97940    0.43280    1.000
    C500     C        0.82776    0.99623    0.47062    1.000
    H248     H        0.78910    0.00760    0.47300    1.000
    C501     C        0.75898    0.87016    0.48832    1.000
    C502     C        0.81803    0.85992    0.49222    1.000
    H249     H        0.83590    0.87400    0.50730    1.000
    C503     C        0.84987    0.82920    0.47398    1.000
    H250     H        0.88930    0.82190    0.47660    1.000
    C504     C        0.82331    0.80924    0.45189    1.000
    C505     C        0.85675    0.77639    0.43301    1.000
    N63      N        0.88328    0.75218    0.41831    1.000
    C506     C        0.76491    0.81720    0.44837    1.000
    H251     H        0.74670    0.80100    0.43380    1.000
    C507     C        0.73425    0.84837    0.46598    1.000
    H252     H        0.69490    0.85550    0.46300    1.000
    C508     C        0.66725    0.88173    0.51295    1.000
    C509     C        0.65420    0.81926    0.51376    1.000
    H253     H        0.68340    0.79030    0.51080    1.000
    C510     C        0.59890    0.79966    0.51880    1.000
    H254     H        0.59060    0.75750    0.51960    1.000
    C511     C        0.55560    0.84250    0.52264    1.000
    C512     C        0.49864    0.81980    0.52675    1.000
    N64      N        0.45335    0.80300    0.53049    1.000
    C513     C        0.56825    0.90354    0.52131    1.000
    H255     H        0.53870    0.93230    0.52380    1.000
    C514     C        0.62249    0.92360    0.51651    1.000
    H256     H        0.63000    0.96590    0.51560    1.000
    C515     C        0.66367    0.98655    0.57036    1.000
    C516     C        0.66493    0.92443    0.57350    1.000
    H257     H        0.69940    0.90310    0.57040    1.000
    C517     C        0.61700    0.89251    0.58107    1.000
    H258     H        0.61840    0.84970    0.58300    1.000
    C518     C        0.56617    0.92452    0.58591    1.000
    C519     C        0.51690    0.88997    0.59174    1.000
    N65      N        0.47990    0.85650    0.59577    1.000
    C520     C        0.56473    0.98804    0.58338    1.000
    H259     H        0.53050    0.00960    0.58670    1.000
    C521     C        0.61352    0.01917    0.57606    1.000
    H260     H        0.61310    0.06220    0.57490    1.000
    C522     C        0.73280    0.07678    0.57056    1.000
    C523     C        0.73088    0.08954    0.59692    1.000
    H261     H        0.71590    0.06020    0.60830    1.000
    C524     C        0.75039    0.14387    0.60608    1.000
    H262     H        0.74980    0.15160    0.62380    1.000
    C525     C        0.77115    0.18774    0.58945    1.000
    C526     C        0.79061    0.24462    0.59891    1.000
    N66      N        0.80602    0.29120    0.60644    1.000
    C527     C        0.77221    0.17683    0.56334    1.000
    H263     H        0.78580    0.20710    0.55200    1.000
    C528     C        0.75336    0.12170    0.55413    1.000
    H264     H        0.75430    0.11410    0.53640    1.000
    C529     C        0.19690    0.19829    0.27092    1.000
    C530     C        0.24135    0.20172    0.28943    1.000
    C531     C        0.24226    0.24051    0.26755    1.000
    C532     C        0.14615    0.17359    0.26292    1.000
    C533     C        0.26541    0.18213    0.31119    1.000
    C534     C        0.26461    0.28726    0.25435    1.000
    C535     C        0.12805    0.18304    0.23664    1.000
    C536     C        0.16903    0.18767    0.21736    1.000
    H265     H        0.20810    0.18280    0.22150    1.000
    C537     C        0.15393    0.19924    0.19236    1.000
    H266     H        0.18240    0.20280    0.17960    1.000
    C538     C        0.09689    0.20554    0.18610    1.000
    C539     C        0.07954    0.21739    0.16050    1.000
    N67      N        0.06733    0.22588    0.13977    1.000
    C540     C        0.05428    0.19889    0.20494    1.000
    H267     H        0.01510    0.20180    0.20050    1.000
    C541     C        0.07036    0.18803    0.22986    1.000
    H268     H        0.04190    0.18390    0.24260    1.000
    C542     C        0.11136    0.13897    0.28085    1.000
    C543     C        0.08183    0.08675    0.27337    1.000
    H269     H        0.08300    0.07430    0.25610    1.000
    C544     C        0.05102    0.05316    0.29066    1.000
    H270     H        0.03090    0.01810    0.28520    1.000
    C545     C        0.04949    0.07079    0.31624    1.000
    C546     C        0.01981    0.03306    0.33407    1.000
    N68      N        0.99766    0.99936    0.34752    1.000
    C547     C        0.07677    0.12384    0.32386    1.000
    H271     H        0.07400    0.13710    0.34100    1.000
    C548     C        0.10787    0.15718    0.30649    1.000
    H272     H        0.12710    0.19280    0.31190    1.000
    C549     C        0.24295    0.12767    0.32391    1.000
    C550     C        0.22050    0.07923    0.30968    1.000
    H273     H        0.22310    0.08010    0.29170    1.000
    C551     C        0.19494    0.03080    0.32146    1.000
    H274     H        0.17960    0.99840    0.31170    1.000
    C552     C        0.19167    0.02957    0.34780    1.000
    C553     C        0.16221    0.98063    0.36037    1.000
    N69      N        0.13745    0.94262    0.37048    1.000
    C554     C        0.21616    0.07634    0.36244    1.000
    H275     H        0.21460    0.07470    0.38050    1.000
    C555     C        0.24208    0.12389    0.35070    1.000
    H276     H        0.25970    0.15470    0.36060    1.000
    C556     C        0.31209    0.21786    0.32269    1.000
    C557     C        0.36074    0.19108    0.33254    1.000
    H277     H        0.36400    0.14810    0.33270    1.000
    C558     C        0.40485    0.22637    0.34213    1.000
    H278     H        0.43890    0.20800    0.34820    1.000
    C559     C        0.39832    0.28955    0.34274    1.000
    C560     C        0.44403    0.32746    0.35140    1.000
    N70      N        0.47872    0.36053    0.35788    1.000
    C561     C        0.34829    0.31668    0.33368    1.000
    H279     H        0.34340    0.35940    0.33460    1.000
    C562     C        0.30635    0.28071    0.32338    1.000
    H280     H        0.27300    0.29900    0.31660    1.000
    C563     C        0.32023    0.31441    0.26122    1.000
    C564     C        0.36591    0.27664    0.26843    1.000
    H281     H        0.36110    0.23390    0.26870    1.000
    C565     C        0.41789    0.30182    0.27517    1.000
    H282     H        0.44880    0.27650    0.28000    1.000
    C566     C        0.42429    0.36378    0.27475    1.000
    C567     C        0.47717    0.39180    0.28156    1.000
    N71      N        0.51930    0.41701    0.28760    1.000
    C568     C        0.37948    0.40235    0.26766    1.000
    H283     H        0.38430    0.44510    0.26780    1.000
    C569     C        0.32776    0.37668    0.26038    1.000
    H284     H        0.29750    0.40200    0.25480    1.000
    C570     C        0.23118    0.31538    0.23355    1.000
    C571     C        0.25721    0.33350    0.21116    1.000
    H285     H        0.29740    0.32980    0.20940    1.000
    C572     C        0.22530    0.35691    0.19126    1.000
    H286     H        0.24340    0.36910    0.17590    1.000
    C573     C        0.16628    0.36229    0.19402    1.000
    C574     C        0.13103    0.38414    0.17362    1.000
    N72      N        0.10146    0.40126    0.15804    1.000
    C575     C        0.13896    0.34484    0.21676    1.000
    H287     H        0.09890    0.34900    0.21870    1.000
    C576     C        0.17205    0.32143    0.23619    1.000
    H288     H        0.15430    0.30930    0.25160    1.000
    Cu13     Cu       0.46416    0.57516    0.63644    1.000
    C577     C        0.29264    0.50669    0.47558    1.000
    Cu14     Cu       0.44759    0.77392    0.60342    1.000
    C578     C        0.24750    0.55062    0.47937    1.000
    C579     C        0.24403    0.50738    0.45925    1.000
    C580     C        0.34357    0.48423    0.48336    1.000
    C581     C        0.22599    0.59795    0.49231    1.000
    C582     C        0.21457    0.48184    0.43971    1.000
    C583     C        0.44274    0.35733    0.46544    1.000
    H289     H        0.46770    0.32930    0.47340    1.000
    C584     C        0.37615    0.44072    0.46820    1.000
    C585     C        0.37165    0.44086    0.44153    1.000
    H290     H        0.34830    0.47020    0.43340    1.000
    C586     C        0.40110    0.39851    0.42701    1.000
    H291     H        0.39680    0.39790    0.40910    1.000
    C587     C        0.43675    0.35731    0.43883    1.000
    C588     C        0.46719    0.31411    0.42367    1.000
    N73      N        0.49238    0.28059    0.41170    1.000
    C589     C        0.41241    0.39783    0.47975    1.000
    H292     H        0.41580    0.39710    0.49770    1.000
    C590     C        0.36506    0.50351    0.50871    1.000
    C591     C        0.42198    0.52018    0.51241    1.000
    H293     H        0.44740    0.52030    0.49840    1.000
    C592     C        0.44173    0.53657    0.53625    1.000
    H294     H        0.48050    0.54740    0.53860    1.000
    C593     C        0.40422    0.53690    0.55652    1.000
    C594     C        0.42395    0.55208    0.58120    1.000
    N74      N        0.44053    0.56361    0.60127    1.000
    C595     C        0.34628    0.52032    0.55322    1.000
    H295     H        0.32070    0.52060    0.56720    1.000
    C596     C        0.32776    0.50377    0.52938    1.000
    H296     H        0.28910    0.49240    0.52700    1.000
    C597     C        0.25898    0.62984    0.51168    1.000
    C598     C        0.31803    0.64008    0.50778    1.000
    H297     H        0.33590    0.62600    0.49270    1.000
    C599     C        0.34987    0.67080    0.52602    1.000
    H298     H        0.38930    0.67810    0.52340    1.000
    C600     C        0.32331    0.69076    0.54811    1.000
    C601     C        0.35675    0.72361    0.56699    1.000
    N75      N        0.38328    0.74782    0.58169    1.000
    C602     C        0.26491    0.68280    0.55163    1.000
    H299     H        0.24670    0.69900    0.56620    1.000
    C603     C        0.23425    0.65163    0.53402    1.000
    H300     H        0.19490    0.64450    0.53700    1.000
    C604     C        0.16725    0.61827    0.48705    1.000
    C605     C        0.15420    0.68074    0.48624    1.000
    H301     H        0.18340    0.70970    0.48920    1.000
    C606     C        0.09890    0.70034    0.48120    1.000
    H302     H        0.09060    0.74250    0.48040    1.000
    C607     C        0.05560    0.65750    0.47736    1.000
    C608     C        0.99864    0.68020    0.47325    1.000
    N76      N        0.95335    0.69700    0.46951    1.000
    C609     C        0.06825    0.59646    0.47869    1.000
    H303     H        0.03870    0.56770    0.47620    1.000
    C610     C        0.12249    0.57640    0.48349    1.000
    H304     H        0.13000    0.53410    0.48440    1.000
    C611     C        0.16367    0.51345    0.42964    1.000
    C612     C        0.16493    0.57557    0.42650    1.000
    H305     H        0.19940    0.59690    0.42960    1.000
    C613     C        0.11700    0.60749    0.41893    1.000
    H306     H        0.11840    0.65030    0.41700    1.000
    C614     C        0.06617    0.57548    0.41409    1.000
    C615     C        0.01690    0.61003    0.40826    1.000
    N77      N        0.97990    0.64350    0.40423    1.000
    C616     C        0.06473    0.51196    0.41662    1.000
    H307     H        0.03050    0.49040    0.41330    1.000
    C617     C        0.11352    0.48083    0.42394    1.000
    H308     H        0.11310    0.43780    0.42510    1.000
    C618     C        0.23280    0.42322    0.42944    1.000
    C619     C        0.23088    0.41046    0.40308    1.000
    H309     H        0.21590    0.43980    0.39170    1.000
    C620     C        0.25039    0.35613    0.39392    1.000
    H310     H        0.24980    0.34840    0.37620    1.000
    C621     C        0.27115    0.31226    0.41055    1.000
    C622     C        0.29061    0.25538    0.40109    1.000
    N78      N        0.30602    0.20880    0.39356    1.000
    C623     C        0.27221    0.32317    0.43666    1.000
    H311     H        0.28580    0.29290    0.44800    1.000
    C624     C        0.25336    0.37830    0.44587    1.000
    H312     H        0.25430    0.38590    0.46360    1.000
    C625     C        0.69690    0.30171    0.72908    1.000
    C626     C        0.74135    0.29828    0.71057    1.000
    C627     C        0.74226    0.25949    0.73245    1.000
    C628     C        0.64615    0.32641    0.73708    1.000
    C629     C        0.76541    0.31787    0.68881    1.000
    C630     C        0.76461    0.21274    0.74565    1.000
    C631     C        0.62805    0.31696    0.76336    1.000
    C632     C        0.66903    0.31233    0.78264    1.000
    H313     H        0.70810    0.31720    0.77850    1.000
    C633     C        0.65393    0.30076    0.80764    1.000
    H314     H        0.68240    0.29720    0.82040    1.000
    C634     C        0.59689    0.29446    0.81390    1.000
    C635     C        0.57954    0.28261    0.83950    1.000
    N79      N        0.56733    0.27412    0.86023    1.000
    C636     C        0.55428    0.30111    0.79506    1.000
    H315     H        0.51510    0.29820    0.79950    1.000
    C637     C        0.57036    0.31197    0.77014    1.000
    H316     H        0.54190    0.31610    0.75740    1.000
    C638     C        0.61136    0.36103    0.71915    1.000
    C639     C        0.58183    0.41325    0.72663    1.000
    H317     H        0.58300    0.42570    0.74390    1.000
    C640     C        0.55102    0.44684    0.70934    1.000
    H318     H        0.53090    0.48190    0.71480    1.000
    C641     C        0.54949    0.42921    0.68376    1.000
    C642     C        0.51981    0.46694    0.66593    1.000
    N80      N        0.49766    0.50064    0.65248    1.000
    C643     C        0.57677    0.37616    0.67614    1.000
    H319     H        0.57400    0.36290    0.65900    1.000
    C644     C        0.60787    0.34282    0.69351    1.000
    H320     H        0.62710    0.30720    0.68810    1.000
    C645     C        0.74295    0.37233    0.67609    1.000
    C646     C        0.72050    0.42077    0.69032    1.000
    H321     H        0.72310    0.41990    0.70830    1.000
    C647     C        0.69494    0.46920    0.67854    1.000
    H322     H        0.67960    0.50160    0.68830    1.000
    C648     C        0.69167    0.47043    0.65220    1.000
    C649     C        0.66221    0.51937    0.63963    1.000
    N81      N        0.63745    0.55738    0.62952    1.000
    C650     C        0.71616    0.42366    0.63756    1.000
    H323     H        0.71460    0.42530    0.61950    1.000
    C651     C        0.74208    0.37611    0.64930    1.000
    H324     H        0.75970    0.34530    0.63940    1.000
    C652     C        0.81209    0.28214    0.67731    1.000
    C653     C        0.86074    0.30892    0.66746    1.000
    H325     H        0.86400    0.35190    0.66730    1.000
    C654     C        0.90485    0.27363    0.65787    1.000
    H326     H        0.93890    0.29200    0.65180    1.000
    C655     C        0.89832    0.21045    0.65726    1.000
    C656     C        0.94403    0.17254    0.64860    1.000
    N82      N        0.97872    0.13947    0.64212    1.000
    C657     C        0.84829    0.18332    0.66632    1.000
    H327     H        0.84340    0.14060    0.66540    1.000
    C658     C        0.80635    0.21929    0.67662    1.000
    H328     H        0.77300    0.20100    0.68340    1.000
    C659     C        0.82023    0.18559    0.73878    1.000
    C660     C        0.86591    0.22336    0.73157    1.000
    H329     H        0.86110    0.26610    0.73130    1.000
    C661     C        0.91789    0.19818    0.72483    1.000
    H330     H        0.94880    0.22350    0.72000    1.000
    C662     C        0.92429    0.13622    0.72525    1.000
    C663     C        0.97717    0.10820    0.71844    1.000
    N83      N        0.01930    0.08299    0.71240    1.000
    C664     C        0.87948    0.09765    0.73234    1.000
    H331     H        0.88430    0.05490    0.73220    1.000
    C665     C        0.82776    0.12332    0.73962    1.000
    H332     H        0.79750    0.09800    0.74520    1.000
    C666     C        0.73118    0.18462    0.76645    1.000
    C667     C        0.75721    0.16650    0.78884    1.000
    H333     H        0.79740    0.17020    0.79060    1.000
    C668     C        0.72530    0.14309    0.80874    1.000
    H334     H        0.74340    0.13090    0.82410    1.000
    C669     C        0.66628    0.13771    0.80598    1.000
    C670     C        0.63103    0.11586    0.82638    1.000
    N84      N        0.60146    0.09874    0.84196    1.000
    C671     C        0.63896    0.15516    0.78324    1.000
    H335     H        0.59890    0.15100    0.78130    1.000
    C672     C        0.67205    0.17857    0.76381    1.000
    H336     H        0.65430    0.19070    0.74840    1.000
    Cu15     Cu       0.03584    0.42484    0.13644    1.000
    C673     C        0.20736    0.49331    0.97558    1.000
    Cu16     Cu       0.05241    0.22608    0.10342    1.000
    C674     C        0.25250    0.44938    0.97937    1.000
    C675     C        0.25597    0.49262    0.95925    1.000
    C676     C        0.15643    0.51577    0.98336    1.000
    C677     C        0.27401    0.40205    0.99231    1.000
    C678     C        0.28543    0.51816    0.93971    1.000
    C679     C        0.05726    0.64267    0.96544    1.000
    H337     H        0.03230    0.67070    0.97340    1.000
    C680     C        0.12385    0.55928    0.96820    1.000
    C681     C        0.12835    0.55914    0.94153    1.000
    H338     H        0.15170    0.52980    0.93340    1.000
    C682     C        0.09890    0.60149    0.92701    1.000
    H339     H        0.10320    0.60210    0.90910    1.000
    C683     C        0.06325    0.64269    0.93883    1.000
    C684     C        0.03281    0.68589    0.92367    1.000
    N85      N        0.00762    0.71941    0.91170    1.000
    C685     C        0.08759    0.60217    0.97975    1.000
    H340     H        0.08420    0.60290    0.99770    1.000
    C686     C        0.13494    0.49649    0.00871    1.000
    C687     C        0.07802    0.47982    0.01241    1.000
    H341     H        0.05260    0.47970    0.99840    1.000
    C688     C        0.05827    0.46343    0.03625    1.000
    H342     H        0.01950    0.45260    0.03860    1.000
    C689     C        0.09578    0.46310    0.05652    1.000
    C690     C        0.07605    0.44792    0.08120    1.000
    N86      N        0.05947    0.43639    0.10127    1.000
    C691     C        0.15372    0.47968    0.05322    1.000
    H343     H        0.17930    0.47940    0.06720    1.000
    C692     C        0.17224    0.49623    0.02938    1.000
    H344     H        0.21090    0.50760    0.02700    1.000
    C693     C        0.24102    0.37016    0.01168    1.000
    C694     C        0.18197    0.35992    0.00778    1.000
    H345     H        0.16410    0.37400    0.99270    1.000
    C695     C        0.15013    0.32920    0.02602    1.000
    H346     H        0.11070    0.32190    0.02340    1.000
    C696     C        0.17669    0.30924    0.04811    1.000
    C697     C        0.14325    0.27639    0.06699    1.000
    N87      N        0.11672    0.25218    0.08169    1.000
    C698     C        0.23509    0.31720    0.05163    1.000
    H347     H        0.25330    0.30100    0.06620    1.000
    C699     C        0.26575    0.34837    0.03402    1.000
    H348     H        0.30510    0.35550    0.03700    1.000
    C700     C        0.33275    0.38173    0.98705    1.000
    C701     C        0.34580    0.31926    0.98624    1.000
    H349     H        0.31660    0.29030    0.98920    1.000
    C702     C        0.40110    0.29966    0.98120    1.000
    H350     H        0.40940    0.25750    0.98040    1.000
    C703     C        0.44440    0.34250    0.97736    1.000
    C704     C        0.50136    0.31980    0.97325    1.000
    N88      N        0.54665    0.30300    0.96951    1.000
    C705     C        0.43175    0.40354    0.97869    1.000
    H351     H        0.46130    0.43230    0.97620    1.000
    C706     C        0.37751    0.42360    0.98349    1.000
    H352     H        0.37000    0.46590    0.98440    1.000
    C707     C        0.33633    0.48655    0.92964    1.000
    C708     C        0.33507    0.42443    0.92650    1.000
    H353     H        0.30060    0.40310    0.92960    1.000
    C709     C        0.38300    0.39251    0.91893    1.000
    H354     H        0.38160    0.34970    0.91700    1.000
    C710     C        0.43383    0.42452    0.91409    1.000
    C711     C        0.48310    0.38997    0.90826    1.000
    N89      N        0.52010    0.35650    0.90423    1.000
    C712     C        0.43527    0.48804    0.91662    1.000
    H355     H        0.46950    0.50960    0.91330    1.000
    C713     C        0.38648    0.51917    0.92394    1.000
    H356     H        0.38690    0.56220    0.92510    1.000
    C714     C        0.26720    0.57678    0.92944    1.000
    C715     C        0.26912    0.58954    0.90308    1.000
    H357     H        0.28410    0.56020    0.89170    1.000
    C716     C        0.24961    0.64387    0.89392    1.000
    H358     H        0.25020    0.65160    0.87620    1.000
    C717     C        0.22885    0.68774    0.91055    1.000
    C718     C        0.20939    0.74462    0.90109    1.000
    N90      N        0.19398    0.79120    0.89356    1.000
    C719     C        0.22779    0.67683    0.93666    1.000
    H359     H        0.21420    0.70710    0.94800    1.000
    C720     C        0.24664    0.62170    0.94587    1.000
    H360     H        0.24570    0.61410    0.96360    1.000
    C721     C        0.80310    0.69829    0.22908    1.000
    C722     C        0.75865    0.70172    0.21057    1.000
    C723     C        0.75774    0.74051    0.23245    1.000
    C724     C        0.85385    0.67359    0.23708    1.000
    C725     C        0.73459    0.68213    0.18881    1.000
    C726     C        0.73539    0.78726    0.24565    1.000
    C727     C        0.87195    0.68304    0.26336    1.000
    C728     C        0.83097    0.68767    0.28264    1.000
    H361     H        0.79190    0.68280    0.27850    1.000
    C729     C        0.84607    0.69924    0.30764    1.000
    H362     H        0.81760    0.70280    0.32040    1.000
    C730     C        0.90311    0.70554    0.31390    1.000
    C731     C        0.92046    0.71739    0.33950    1.000
    N91      N        0.93267    0.72588    0.36023    1.000
    C732     C        0.94572    0.69889    0.29506    1.000
    H363     H        0.98490    0.70180    0.29950    1.000
    C733     C        0.92964    0.68803    0.27014    1.000
    H364     H        0.95810    0.68390    0.25740    1.000
    C734     C        0.88864    0.63897    0.21915    1.000
    C735     C        0.91817    0.58675    0.22663    1.000
    H365     H        0.91700    0.57430    0.24390    1.000
    C736     C        0.94898    0.55316    0.20934    1.000
    H366     H        0.96910    0.51810    0.21480    1.000
    C737     C        0.95051    0.57079    0.18376    1.000
    C738     C        0.98019    0.53306    0.16593    1.000
    N92      N        0.00234    0.49936    0.15248    1.000
    C739     C        0.92323    0.62384    0.17614    1.000
    H367     H        0.92600    0.63710    0.15900    1.000
    C740     C        0.89213    0.65718    0.19351    1.000
    H368     H        0.87290    0.69280    0.18810    1.000
    C741     C        0.75705    0.62767    0.17609    1.000
    C742     C        0.77950    0.57923    0.19032    1.000
    H369     H        0.77690    0.58010    0.20830    1.000
    C743     C        0.80506    0.53080    0.17854    1.000
    H370     H        0.82040    0.49840    0.18830    1.000
    C744     C        0.80833    0.52957    0.15220    1.000
    C745     C        0.83779    0.48063    0.13963    1.000
    N93      N        0.86255    0.44262    0.12952    1.000
    C746     C        0.78384    0.57634    0.13756    1.000
    H371     H        0.78540    0.57470    0.11950    1.000
    C747     C        0.75792    0.62389    0.14930    1.000
    H372     H        0.74030    0.65470    0.13940    1.000
    C748     C        0.68791    0.71786    0.17731    1.000
    C749     C        0.63926    0.69108    0.16746    1.000
    H373     H        0.63600    0.64810    0.16730    1.000
    C750     C        0.59515    0.72637    0.15787    1.000
    H374     H        0.56110    0.70800    0.15180    1.000
    C751     C        0.60168    0.78955    0.15726    1.000
    C752     C        0.55597    0.82746    0.14860    1.000
    N94      N        0.52128    0.86053    0.14212    1.000
    C753     C        0.65171    0.81668    0.16632    1.000
    H375     H        0.65660    0.85940    0.16540    1.000
    C754     C        0.69365    0.78071    0.17662    1.000
    H376     H        0.72700    0.79900    0.18340    1.000
    C755     C        0.67977    0.81441    0.23878    1.000
    C756     C        0.63409    0.77664    0.23157    1.000
    H377     H        0.63890    0.73390    0.23130    1.000
    C757     C        0.58211    0.80182    0.22483    1.000
    H378     H        0.55120    0.77650    0.22000    1.000
    C758     C        0.57571    0.86378    0.22525    1.000
    C759     C        0.52283    0.89180    0.21844    1.000
    N95      N        0.48070    0.91701    0.21240    1.000
    C760     C        0.62052    0.90235    0.23234    1.000
    H379     H        0.61570    0.94510    0.23220    1.000
    C761     C        0.67224    0.87668    0.23962    1.000
    H380     H        0.70250    0.90200    0.24520    1.000
    C762     C        0.76882    0.81538    0.26645    1.000
    C763     C        0.74279    0.83350    0.28884    1.000
    H381     H        0.70260    0.82980    0.29060    1.000
    C764     C        0.77470    0.85691    0.30874    1.000
    H382     H        0.75660    0.86910    0.32410    1.000
    C765     C        0.83372    0.86229    0.30598    1.000
    C766     C        0.86897    0.88414    0.32638    1.000
    N96      N        0.89854    0.90126    0.34196    1.000
    C767     C        0.86104    0.84484    0.28324    1.000
    H383     H        0.90110    0.84900    0.28130    1.000
    C768     C        0.82795    0.82143    0.26381    1.000
    H384     H        0.84570    0.80930    0.24840    1.000
