# CIF file generated by openbabel 3.1.0, see https://openbabel.org
data_I
_chemical_name_common 'image0'
_cell_length_a 11.6936
_cell_length_b 11.6936
_cell_length_c 28.6993
_cell_angle_alpha 90
_cell_angle_beta 90
_cell_angle_gamma 120
_space_group_name_H-M_alt 'P 1'
_space_group_name_Hall 'P 1'
loop_
    _symmetry_equiv_pos_as_xyz
    x,y,z
loop_
    _atom_site_label
    _atom_site_type_symbol
    _atom_site_fract_x
    _atom_site_fract_y
    _atom_site_fract_z
    _atom_site_occupancy
    Ag1      Ag       0.73361    0.71374    0.39594    1.000
    Ag2      Ag       0.52814    0.78625    0.38383    1.000
    Ag3      Ag       0.50019    0.48745    0.37809    1.000
    C1       C        0.54880    0.63890    0.43190    1.000
    C2       C        0.48910    0.64490    0.46510    1.000
    C3       C        0.41100    0.64010    0.50393    1.000
    C4       C        0.44720    0.75240    0.53050    1.000
    H1       H        0.52130    0.83210    0.52240    1.000
    C5       C        0.37260    0.74580    0.56920    1.000
    H2       H        0.39690    0.82100    0.58700    1.000
    C6       C        0.26190    0.62680    0.58135    1.000
    C7       C        0.22570    0.51440    0.55470    1.000
    H3       H        0.15170    0.43480    0.56290    1.000
    C8       C        0.30030    0.52110    0.51600    1.000
    H4       H        0.27610    0.44590    0.49820    1.000
    C9       C        0.78220    0.24670    0.64770    1.000
    C10      C        0.69570    0.17400    0.60330    1.000
    C11      C        0.77570    0.20280    0.55540    1.000
    C12      C        0.87820    0.15450    0.54770    1.000
    C13      C        0.82230    0.00120    0.54690    1.000
    F1       F        0.63740    0.04850    0.60740    1.000
    F2       F        0.61290    0.21680    0.59570    1.000
    F3       F        0.84350    0.33640    0.54880    1.000
    F4       F        0.68350    0.14760    0.52060    1.000
    F5       F        0.93550    0.19880    0.50660    1.000
    F6       F        0.96690    0.21100    0.58050    1.000
    N1       N        0.18380    0.61660    0.62250    1.000
    O1       O        0.21380    0.70930    0.64510    1.000
    O2       O        0.09110    0.50690    0.63160    1.000
    O3       O        0.82050    0.18330    0.66972    1.000
    O4       O        0.80770    0.36160    0.65460    1.000
    O5       O        0.83140    0.95240    0.58353    1.000
    O6       O        0.76710    0.94130    0.51050    1.000
    Ag4      Ag       0.28626    0.01987    0.06261    1.000
    Ag5      Ag       0.21375    0.74189    0.05050    1.000
    Ag6      Ag       0.51255    0.01274    0.04476    1.000
    C14      C        0.36110    0.90990    0.09857    1.000
    C15      C        0.35510    0.84420    0.13177    1.000
    C16      C        0.35990    0.77090    0.17060    1.000
    C17      C        0.24760    0.69480    0.19717    1.000
    H5       H        0.16790    0.68920    0.18907    1.000
    C18      C        0.25420    0.62680    0.23587    1.000
    H6       H        0.17900    0.57590    0.25367    1.000
    C19      C        0.37320    0.63510    0.24802    1.000
    C20      C        0.48560    0.71130    0.22137    1.000
    H7       H        0.56520    0.71690    0.22957    1.000
    C21      C        0.47890    0.77920    0.18267    1.000
    H8       H        0.55410    0.83020    0.16487    1.000
    C22      C        0.75330    0.53550    0.31437    1.000
    C23      C        0.82600    0.52170    0.26997    1.000
    C24      C        0.79720    0.57290    0.22207    1.000
    C25      C        0.84550    0.72370    0.21437    1.000
    C26      C        0.99880    0.82110    0.21357    1.000
    F7       F        0.95150    0.58890    0.27407    1.000
    F8       F        0.78320    0.39610    0.26237    1.000
    F9       F        0.66360    0.50710    0.21547    1.000
    F10      F        0.85240    0.53590    0.18727    1.000
    F11      F        0.80120    0.73670    0.17327    1.000
    F12      F        0.78900    0.75590    0.24717    1.000
    N2       N        0.38340    0.56720    0.28917    1.000
    O7       O        0.29070    0.50450    0.31177    1.000
    O8       O        0.49310    0.58420    0.29827    1.000
    O9       O        0.81670    0.63720    0.33639    1.000
    O10      O        0.63840    0.44610    0.32127    1.000
    O11      O        0.04760    0.87900    0.25020    1.000
    O12      O        0.05870    0.82580    0.17717    1.000
    Ag7      Ag       0.98013    0.26639    0.72927    1.000
    Ag8      Ag       0.25811    0.47186    0.71716    1.000
    Ag9      Ag       0.98726    0.49981    0.71142    1.000
    C27      C        0.09010    0.45120    0.76523    1.000
    C28      C        0.15580    0.51090    0.79843    1.000
    C29      C        0.22910    0.58900    0.83726    1.000
    C30      C        0.30520    0.55280    0.86383    1.000
    H9       H        0.31080    0.47870    0.85573    1.000
    C31      C        0.37320    0.62740    0.90253    1.000
    H10      H        0.42410    0.60310    0.92033    1.000
    C32      C        0.36490    0.73810    0.91468    1.000
    C33      C        0.28870    0.77430    0.88803    1.000
    H11      H        0.28310    0.84830    0.89623    1.000
    C34      C        0.22080    0.69970    0.84933    1.000
    H12      H        0.16980    0.72390    0.83153    1.000
    C35      C        0.46450    0.21780    0.98103    1.000
    C36      C        0.47830    0.30430    0.93663    1.000
    C37      C        0.42710    0.22430    0.88873    1.000
    C38      C        0.27630    0.12180    0.88103    1.000
    C39      C        0.17890    0.17770    0.88023    1.000
    F13      F        0.41110    0.36260    0.94073    1.000
    F14      F        0.60390    0.38710    0.92903    1.000
    F15      F        0.49290    0.15650    0.88213    1.000
    F16      F        0.46410    0.31650    0.85393    1.000
    F17      F        0.26330    0.06450    0.83993    1.000
    F18      F        0.24410    0.03310    0.91383    1.000
    N3       N        0.43280    0.81620    0.95583    1.000
    O13      O        0.49550    0.78620    0.97843    1.000
    O14      O        0.41580    0.90890    0.96493    1.000
    O15      O        0.36280    0.17950    0.00305    1.000
    O16      O        0.55390    0.19230    0.98793    1.000
    O17      O        0.12100    0.16860    0.91686    1.000
    O18      O        0.17420    0.23290    0.84383    1.000
    Ag10     Ag       0.71374    0.73361    0.60406    1.000
    Ag11     Ag       0.78625    0.52814    0.61617    1.000
    Ag12     Ag       0.48745    0.50019    0.62191    1.000
    C40      C        0.63890    0.54880    0.56810    1.000
    C41      C        0.64490    0.48910    0.53490    1.000
    C42      C        0.64010    0.41100    0.49607    1.000
    C43      C        0.75240    0.44720    0.46950    1.000
    H13      H        0.83210    0.52130    0.47760    1.000
    C44      C        0.74580    0.37260    0.43080    1.000
    H14      H        0.82100    0.39690    0.41300    1.000
    C45      C        0.62680    0.26190    0.41865    1.000
    C46      C        0.51440    0.22570    0.44530    1.000
    H15      H        0.43480    0.15170    0.43710    1.000
    C47      C        0.52110    0.30030    0.48400    1.000
    H16      H        0.44590    0.27610    0.50180    1.000
    C48      C        0.24670    0.78220    0.35230    1.000
    C49      C        0.17400    0.69570    0.39670    1.000
    C50      C        0.20280    0.77570    0.44460    1.000
    C51      C        0.15450    0.87820    0.45230    1.000
    C52      C        0.00120    0.82230    0.45310    1.000
    F19      F        0.04850    0.63740    0.39260    1.000
    F20      F        0.21680    0.61290    0.40430    1.000
    F21      F        0.33640    0.84350    0.45120    1.000
    F22      F        0.14760    0.68350    0.47940    1.000
    F23      F        0.19880    0.93550    0.49340    1.000
    F24      F        0.21100    0.96690    0.41950    1.000
    N4       N        0.61660    0.18380    0.37750    1.000
    O19      O        0.70930    0.21380    0.35490    1.000
    O20      O        0.50690    0.09110    0.36840    1.000
    O21      O        0.18330    0.82050    0.33028    1.000
    O22      O        0.36160    0.80770    0.34540    1.000
    O23      O        0.95240    0.83140    0.41647    1.000
    O24      O        0.94130    0.76710    0.48950    1.000
    Ag13     Ag       0.01987    0.28626    0.93739    1.000
    Ag14     Ag       0.74189    0.21375    0.94950    1.000
    Ag15     Ag       0.01274    0.51255    0.95524    1.000
    C53      C        0.90990    0.36110    0.90143    1.000
    C54      C        0.84420    0.35510    0.86823    1.000
    C55      C        0.77090    0.35990    0.82940    1.000
    C56      C        0.69480    0.24760    0.80283    1.000
    H17      H        0.68920    0.16790    0.81093    1.000
    C57      C        0.62680    0.25420    0.76413    1.000
    H18      H        0.57590    0.17900    0.74633    1.000
    C58      C        0.63510    0.37320    0.75198    1.000
    C59      C        0.71130    0.48560    0.77863    1.000
    H19      H        0.71690    0.56520    0.77043    1.000
    C60      C        0.77920    0.47890    0.81733    1.000
    H20      H        0.83020    0.55410    0.83513    1.000
    C61      C        0.53550    0.75330    0.68563    1.000
    C62      C        0.52170    0.82600    0.73003    1.000
    C63      C        0.57290    0.79720    0.77793    1.000
    C64      C        0.72370    0.84550    0.78563    1.000
    C65      C        0.82110    0.99880    0.78643    1.000
    F25      F        0.58890    0.95150    0.72593    1.000
    F26      F        0.39610    0.78320    0.73763    1.000
    F27      F        0.50710    0.66360    0.78453    1.000
    F28      F        0.53590    0.85240    0.81273    1.000
    F29      F        0.73670    0.80120    0.82673    1.000
    F30      F        0.75590    0.78900    0.75283    1.000
    N5       N        0.56720    0.38340    0.71083    1.000
    O25      O        0.50450    0.29070    0.68823    1.000
    O26      O        0.58420    0.49310    0.70173    1.000
    O27      O        0.63720    0.81670    0.66361    1.000
    O28      O        0.44610    0.63840    0.67873    1.000
    O29      O        0.87900    0.04760    0.74980    1.000
    O30      O        0.82580    0.05870    0.82283    1.000
    Ag16     Ag       0.26639    0.98013    0.27073    1.000
    Ag17     Ag       0.47186    0.25811    0.28284    1.000
    Ag18     Ag       0.49981    0.98726    0.28858    1.000
    C66      C        0.45120    0.09010    0.23477    1.000
    C67      C        0.51090    0.15580    0.20157    1.000
    C68      C        0.58900    0.22910    0.16274    1.000
    C69      C        0.55280    0.30520    0.13617    1.000
    H21      H        0.47870    0.31080    0.14427    1.000
    C70      C        0.62740    0.37320    0.09747    1.000
    H22      H        0.60310    0.42410    0.07967    1.000
    C71      C        0.73810    0.36490    0.08532    1.000
    C72      C        0.77430    0.28870    0.11197    1.000
    H23      H        0.84830    0.28310    0.10377    1.000
    C73      C        0.69970    0.22080    0.15067    1.000
    H24      H        0.72390    0.16980    0.16847    1.000
    C74      C        0.21780    0.46450    0.01897    1.000
    C75      C        0.30430    0.47830    0.06337    1.000
    C76      C        0.22430    0.42710    0.11127    1.000
    C77      C        0.12180    0.27630    0.11897    1.000
    C78      C        0.17770    0.17890    0.11977    1.000
    F31      F        0.36260    0.41110    0.05927    1.000
    F32      F        0.38710    0.60390    0.07097    1.000
    F33      F        0.15650    0.49290    0.11787    1.000
    F34      F        0.31650    0.46410    0.14607    1.000
    F35      F        0.06450    0.26330    0.16007    1.000
    F36      F        0.03310    0.24410    0.08617    1.000
    N6       N        0.81620    0.43280    0.04417    1.000
    O31      O        0.78620    0.49550    0.02157    1.000
    O32      O        0.90890    0.41580    0.03507    1.000
    O33      O        0.17950    0.36280    0.99695    1.000
    O34      O        0.19230    0.55390    0.01207    1.000
    O35      O        0.16860    0.12100    0.08314    1.000
    O36      O        0.23290    0.17420    0.15617    1.000
    Ag19     Ag       0.72069    0.72069    0.50000    1.000
    Ag20     Ag       0.27931    0.00000    0.16667    1.000
    Ag21     Ag       0.00000    0.27931    0.83333    1.000
