# CIF file generated by openbabel 3.1.0, see https://openbabel.org
data_I
_chemical_name_common 'image0'
_cell_length_a 16.1703
_cell_length_b 15.1042
_cell_length_c 7.9858
_cell_angle_alpha 90
_cell_angle_beta 92.845
_cell_angle_gamma 90
_space_group_name_H-M_alt 'P 1'
_space_group_name_Hall 'P 1'
loop_
    _symmetry_equiv_pos_as_xyz
    x,y,z
loop_
    _atom_site_label
    _atom_site_type_symbol
    _atom_site_fract_x
    _atom_site_fract_y
    _atom_site_fract_z
    _atom_site_occupancy
    Sm1      Sm       0.95247    0.88364    0.04772    1.000
    Ag1      Ag       0.47193    0.76177    0.60049    1.000
    C1       C        0.83190    0.74910    0.29660    1.000
    C2       C        0.74760    0.74990    0.36580    1.000
    C3       C        0.70800    0.82900    0.39070    1.000
    H1       H        0.73320    0.88220    0.36390    1.000
    C4       C        0.63040    0.82900    0.45580    1.000
    H2       H        0.60420    0.88290    0.47260    1.000
    C5       C        0.63030    0.67780    0.46920    1.000
    H3       H        0.60370    0.62530    0.49480    1.000
    C6       C        0.70770    0.67300    0.40620    1.000
    H4       H        0.73280    0.61840    0.39110    1.000
    C7       C        0.86650    0.08310    0.13750    1.000
    C8       C        0.78830    0.12430    0.19400    1.000
    C9       C        0.71770    0.07390    0.20210    1.000
    H5       H        0.71860    0.01430    0.17280    1.000
    C10      C        0.64660    0.11140    0.25340    1.000
    H6       H        0.59910    0.07670    0.25660    1.000
    C11      C        0.71150    0.24550    0.29030    1.000
    H7       H        0.70960    0.30480    0.32160    1.000
    C12      C        0.78430    0.21270    0.23760    1.000
    H8       H        0.83040    0.24900    0.23100    1.000
    O1       O        0.85430    0.81567    0.21720    1.000
    O2       O        0.87650    0.68130    0.32200    1.000
    O3       O        0.86990    0.00050    0.13910    1.000
    O4       O        0.92360    0.13450    0.09410    1.000
    O5       O        0.94960    0.99873    0.83770    1.000
    O6       O        0.96360    0.11510    0.68440    1.000
    N1       N        0.59150    0.75400    0.49550    1.000
    N2       N        0.64270    0.19700    0.29950    1.000
    C13      C        0.92840    0.04210    0.70940    1.000
    C14      C        0.86910    0.00290    0.57700    1.000
    H9       H        0.83800    0.04960    0.52210    1.000
    H10      H        0.83180    0.96310    0.62930    1.000
    H11      H        0.89970    0.97120    0.49660    1.000
    C15      C        0.85080    0.01570    0.60800    1.000
    H12      H        0.84960    0.95250    0.59530    1.000
    H13      H        0.85060    0.04320    0.50000    1.000
    H14      H        0.80310    0.03450    0.66560    1.000
    Sm2      Sm       0.04753    0.38364    0.45228    1.000
    Ag2      Ag       0.52807    0.26177    0.89951    1.000
    C16      C        0.16810    0.24910    0.20340    1.000
    C17      C        0.25240    0.24990    0.13420    1.000
    C18      C        0.29200    0.32900    0.10930    1.000
    H15      H        0.26680    0.38220    0.13610    1.000
    C19      C        0.36960    0.32900    0.04420    1.000
    H16      H        0.39580    0.38290    0.02740    1.000
    C20      C        0.36970    0.17780    0.03080    1.000
    H17      H        0.39630    0.12530    0.00520    1.000
    C21      C        0.29230    0.17300    0.09380    1.000
    H18      H        0.26720    0.11840    0.10890    1.000
    C22      C        0.13350    0.58310    0.36250    1.000
    C23      C        0.21170    0.62430    0.30600    1.000
    C24      C        0.28230    0.57390    0.29790    1.000
    H19      H        0.28140    0.51430    0.32720    1.000
    C25      C        0.35340    0.61140    0.24660    1.000
    H20      H        0.40090    0.57670    0.24340    1.000
    C26      C        0.28850    0.74550    0.20970    1.000
    H21      H        0.29040    0.80480    0.17840    1.000
    C27      C        0.21570    0.71270    0.26240    1.000
    H22      H        0.16960    0.74900    0.26900    1.000
    O7       O        0.14570    0.31567    0.28280    1.000
    O8       O        0.12350    0.18130    0.17800    1.000
    O9       O        0.13010    0.50050    0.36090    1.000
    O10      O        0.07640    0.63450    0.40590    1.000
    O11      O        0.05040    0.49873    0.66230    1.000
    O12      O        0.03640    0.61510    0.81560    1.000
    N3       N        0.40850    0.25400    0.00450    1.000
    N4       N        0.35730    0.69700    0.20050    1.000
    C28      C        0.07160    0.54210    0.79060    1.000
    C29      C        0.13090    0.50290    0.92300    1.000
    H23      H        0.16200    0.54960    0.97790    1.000
    H24      H        0.16820    0.46310    0.87070    1.000
    H25      H        0.10030    0.47120    0.00340    1.000
    C30      C        0.14920    0.51570    0.89200    1.000
    H26      H        0.15040    0.45250    0.90470    1.000
    H27      H        0.14940    0.54320    0.00000    1.000
    H28      H        0.19690    0.53450    0.83440    1.000
    Sm3      Sm       0.04753    0.11636    0.95228    1.000
    Ag3      Ag       0.52807    0.23823    0.39951    1.000
    C31      C        0.16810    0.25090    0.70340    1.000
    C32      C        0.25240    0.25010    0.63420    1.000
    C33      C        0.29200    0.17100    0.60930    1.000
    H29      H        0.26680    0.11780    0.63610    1.000
    C34      C        0.36960    0.17100    0.54420    1.000
    H30      H        0.39580    0.11710    0.52740    1.000
    C35      C        0.36970    0.32220    0.53080    1.000
    H31      H        0.39630    0.37470    0.50520    1.000
    C36      C        0.29230    0.32700    0.59380    1.000
    H32      H        0.26720    0.38160    0.60890    1.000
    C37      C        0.13350    0.91690    0.86250    1.000
    C38      C        0.21170    0.87570    0.80600    1.000
    C39      C        0.28230    0.92610    0.79790    1.000
    H33      H        0.28140    0.98570    0.82720    1.000
    C40      C        0.35340    0.88860    0.74660    1.000
    H34      H        0.40090    0.92330    0.74340    1.000
    C41      C        0.28850    0.75450    0.70970    1.000
    H35      H        0.29040    0.69520    0.67840    1.000
    C42      C        0.21570    0.78730    0.76240    1.000
    H36      H        0.16960    0.75100    0.76900    1.000
    O13      O        0.14570    0.18433    0.78280    1.000
    O14      O        0.12350    0.31870    0.67800    1.000
    O15      O        0.13010    0.99950    0.86090    1.000
    O16      O        0.07640    0.86550    0.90590    1.000
    O17      O        0.05040    0.00127    0.16230    1.000
    O18      O        0.03640    0.88490    0.31560    1.000
    N5       N        0.40850    0.24600    0.50450    1.000
    N6       N        0.35730    0.80300    0.70050    1.000
    C43      C        0.07160    0.95790    0.29060    1.000
    C44      C        0.13090    0.99710    0.42300    1.000
    H37      H        0.16200    0.95040    0.47790    1.000
    H38      H        0.16820    0.03690    0.37070    1.000
    H39      H        0.10030    0.02880    0.50340    1.000
    C45      C        0.14920    0.98430    0.39200    1.000
    H40      H        0.15040    0.04750    0.40470    1.000
    H41      H        0.14940    0.95680    0.50000    1.000
    H42      H        0.19690    0.96550    0.33440    1.000
    Sm4      Sm       0.95247    0.61636    0.54772    1.000
    Ag4      Ag       0.47193    0.73823    0.10049    1.000
    C46      C        0.83190    0.75090    0.79660    1.000
    C47      C        0.74760    0.75010    0.86580    1.000
    C48      C        0.70800    0.67100    0.89070    1.000
    H43      H        0.73320    0.61780    0.86390    1.000
    C49      C        0.63040    0.67100    0.95580    1.000
    H44      H        0.60420    0.61710    0.97260    1.000
    C50      C        0.63030    0.82220    0.96920    1.000
    H45      H        0.60370    0.87470    0.99480    1.000
    C51      C        0.70770    0.82700    0.90620    1.000
    H46      H        0.73280    0.88160    0.89110    1.000
    C52      C        0.86650    0.41690    0.63750    1.000
    C53      C        0.78830    0.37570    0.69400    1.000
    C54      C        0.71770    0.42610    0.70210    1.000
    H47      H        0.71860    0.48570    0.67280    1.000
    C55      C        0.64660    0.38860    0.75340    1.000
    H48      H        0.59910    0.42330    0.75660    1.000
    C56      C        0.71150    0.25450    0.79030    1.000
    H49      H        0.70960    0.19520    0.82160    1.000
    C57      C        0.78430    0.28730    0.73760    1.000
    H50      H        0.83040    0.25100    0.73100    1.000
    O19      O        0.85430    0.68433    0.71720    1.000
    O20      O        0.87650    0.81870    0.82200    1.000
    O21      O        0.86990    0.49950    0.63910    1.000
    O22      O        0.92360    0.36550    0.59410    1.000
    O23      O        0.94960    0.50127    0.33770    1.000
    O24      O        0.96360    0.38490    0.18440    1.000
    N7       N        0.59150    0.74600    0.99550    1.000
    N8       N        0.64270    0.30300    0.79950    1.000
    C58      C        0.92840    0.45790    0.20940    1.000
    C59      C        0.86910    0.49710    0.07700    1.000
    H51      H        0.83800    0.45040    0.02210    1.000
    H52      H        0.83180    0.53690    0.12930    1.000
    H53      H        0.89970    0.52880    0.99660    1.000
    C60      C        0.85080    0.48430    0.10800    1.000
    H54      H        0.84960    0.54750    0.09530    1.000
    H55      H        0.85060    0.45680    0.00000    1.000
    H56      H        0.80310    0.46550    0.16560    1.000
