# CIF file generated by openbabel 3.1.0, see https://openbabel.org
data_I
_chemical_name_common 'YUJNIB_clean'
_cell_length_a 9.2732
_cell_length_b 17.509
_cell_length_c 18.4285
_cell_angle_alpha 106.031
_cell_angle_beta 90
_cell_angle_gamma 90
_space_group_name_H-M_alt 'P 1'
_space_group_name_Hall 'P 1'
loop_
    _symmetry_equiv_pos_as_xyz
    x,y,z
loop_
    _atom_site_label
    _atom_site_type_symbol
    _atom_site_fract_x
    _atom_site_fract_y
    _atom_site_fract_z
    _atom_site_occupancy
    Sr1      Sr       0.33710    0.86693    0.67482    1.000
    Sr2      Sr       0.84124    0.62233    0.82380    1.000
    Sr3      Sr       0.50478    0.58818    0.67343    1.000
    Sr4      Sr       0.50248    0.07572    0.66326    1.000
    Sr5      Sr       0.83710    0.13307    0.82518    1.000
    Sr6      Sr       0.34124    0.37767    0.67620    1.000
    Sr7      Sr       0.00478    0.41182    0.82657    1.000
    Sr8      Sr       0.00248    0.92428    0.83674    1.000
    Sr9      Sr       0.66290    0.13307    0.32518    1.000
    Sr10     Sr       0.15876    0.37767    0.17620    1.000
    Sr11     Sr       0.49522    0.41182    0.32657    1.000
    Sr12     Sr       0.49752    0.92428    0.33674    1.000
    Sr13     Sr       0.16290    0.86693    0.17482    1.000
    Sr14     Sr       0.65876    0.62233    0.32380    1.000
    Sr15     Sr       0.99522    0.58818    0.17343    1.000
    Sr16     Sr       0.99752    0.07572    0.16326    1.000
    H1       H        0.00810    0.91390    0.66540    1.000
    H2       H        0.01340    0.84330    0.67930    1.000
    H3       H        0.33340    0.94950    0.83220    1.000
    H4       H        0.32010    0.85250    0.83460    1.000
    H5       H        0.49950    0.65720    0.85440    1.000
    H6       H        0.54880    0.58740    0.84450    1.000
    H7       H        0.84840    0.56870    0.65040    1.000
    H8       H        0.81620    0.64500    0.66720    1.000
    H9       H        0.50810    0.08610    0.83460    1.000
    H10      H        0.51340    0.15670    0.82070    1.000
    H11      H        0.83340    0.05050    0.66780    1.000
    H12      H        0.82010    0.14750    0.66540    1.000
    H13      H        0.99950    0.34280    0.64560    1.000
    H14      H        0.04880    0.41260    0.65550    1.000
    H15      H        0.34840    0.43130    0.84960    1.000
    H16      H        0.31620    0.35500    0.83280    1.000
    H17      H        0.99190    0.08610    0.33460    1.000
    H18      H        0.98660    0.15670    0.32070    1.000
    H19      H        0.66660    0.05050    0.16780    1.000
    H20      H        0.67990    0.14750    0.16540    1.000
    H21      H        0.50050    0.34280    0.14560    1.000
    H22      H        0.45120    0.41260    0.15550    1.000
    H23      H        0.15160    0.43130    0.34960    1.000
    H24      H        0.18380    0.35500    0.33280    1.000
    H25      H        0.49190    0.91390    0.16540    1.000
    H26      H        0.48660    0.84330    0.17930    1.000
    H27      H        0.16660    0.94950    0.33220    1.000
    H28      H        0.17990    0.85250    0.33460    1.000
    H29      H        0.00050    0.65720    0.35440    1.000
    H30      H        0.95120    0.58740    0.34450    1.000
    H31      H        0.65160    0.56870    0.15040    1.000
    H32      H        0.68380    0.64500    0.16720    1.000
    C1       C        0.66985    0.85579    0.75888    1.000
    C2       C        0.67487    0.93622    0.74414    1.000
    C3       C        0.17451    0.64569    0.76016    1.000
    C4       C        0.18564    0.56504    0.76908    1.000
    C5       C        0.58344    0.64314    0.50962    1.000
    C6       C        0.62661    0.55816    0.48633    1.000
    C7       C        0.23692    0.84647    0.48718    1.000
    C8       C        0.32357    0.92425    0.50958    1.000
    C9       C        0.16985    0.14421    0.74112    1.000
    C10      C        0.17487    0.06378    0.75586    1.000
    C11      C        0.67451    0.35431    0.73984    1.000
    C12      C        0.68564    0.43496    0.73092    1.000
    C13      C        0.08344    0.35686    0.99038    1.000
    C14      C        0.12661    0.44184    0.01367    1.000
    C15      C        0.73692    0.15353    0.01282    1.000
    C16      C        0.82357    0.07575    0.99042    1.000
    C17      C        0.33015    0.14421    0.24112    1.000
    C18      C        0.32513    0.06378    0.25586    1.000
    C19      C        0.82549    0.35431    0.23984    1.000
    C20      C        0.81436    0.43496    0.23092    1.000
    C21      C        0.41656    0.35686    0.49038    1.000
    C22      C        0.37339    0.44184    0.51367    1.000
    C23      C        0.76308    0.15353    0.51282    1.000
    C24      C        0.67643    0.07575    0.49042    1.000
    C25      C        0.83015    0.85579    0.25888    1.000
    C26      C        0.82513    0.93622    0.24414    1.000
    C27      C        0.32549    0.64569    0.26016    1.000
    C28      C        0.31436    0.56504    0.26908    1.000
    C29      C        0.91656    0.64314    0.00962    1.000
    C30      C        0.87339    0.55816    0.98633    1.000
    C31      C        0.26308    0.84647    0.98718    1.000
    C32      C        0.17643    0.92425    0.00958    1.000
    N1       N        0.55793    0.80639    0.73760    1.000
    N2       N        0.59583    0.74178    0.75851    1.000
    N3       N        0.72612    0.75408    0.79151    1.000
    N4       N        0.77387    0.82648    0.79246    1.000
    N5       N        0.26593    0.67541    0.72063    1.000
    N6       N        0.21809    0.75007    0.72662    1.000
    N7       N        0.10335    0.76295    0.77045    1.000
    N8       N        0.07135    0.69827    0.79203    1.000
    N9       N        0.52450    0.67896    0.57594    1.000
    N10      N        0.50611    0.75437    0.57347    1.000
    N11      N        0.55498    0.76268    0.50954    1.000
    N12      N        0.60510    0.69223    0.46748    1.000
    N13      N        0.20690    0.80687    0.53623    1.000
    N14      N        0.12943    0.74353    0.49659    1.000
    N15      N        0.11446    0.74803    0.42696    1.000
    N16      N        0.18230    0.81337    0.42032    1.000
    N17      N        0.05793    0.19361    0.76240    1.000
    N18      N        0.09583    0.25822    0.74149    1.000
    N19      N        0.22612    0.24592    0.70849    1.000
    N20      N        0.27387    0.17352    0.70754    1.000
    N21      N        0.76593    0.32459    0.77937    1.000
    N22      N        0.71809    0.24993    0.77338    1.000
    N23      N        0.60335    0.23705    0.72955    1.000
    N24      N        0.57135    0.30173    0.70797    1.000
    N25      N        0.02450    0.32104    0.92406    1.000
    N26      N        0.00611    0.24563    0.92653    1.000
    N27      N        0.05498    0.23732    0.99046    1.000
    N28      N        0.10510    0.30777    0.03252    1.000
    N29      N        0.70690    0.19313    0.96377    1.000
    N30      N        0.62943    0.25647    0.00341    1.000
    N31      N        0.61446    0.25197    0.07304    1.000
    N32      N        0.68230    0.18663    0.07968    1.000
    N33      N        0.44207    0.19361    0.26240    1.000
    N34      N        0.40417    0.25822    0.24149    1.000
    N35      N        0.27388    0.24592    0.20849    1.000
    N36      N        0.22613    0.17352    0.20754    1.000
    N37      N        0.73407    0.32459    0.27937    1.000
    N38      N        0.78191    0.24993    0.27338    1.000
    N39      N        0.89665    0.23705    0.22955    1.000
    N40      N        0.92865    0.30173    0.20797    1.000
    N41      N        0.47550    0.32104    0.42406    1.000
    N42      N        0.49389    0.24563    0.42653    1.000
    N43      N        0.44502    0.23732    0.49046    1.000
    N44      N        0.39490    0.30777    0.53252    1.000
    N45      N        0.79310    0.19313    0.46377    1.000
    N46      N        0.87057    0.25647    0.50341    1.000
    N47      N        0.88554    0.25197    0.57304    1.000
    N48      N        0.81770    0.18663    0.57968    1.000
    N49      N        0.94207    0.80639    0.23760    1.000
    N50      N        0.90417    0.74178    0.25851    1.000
    N51      N        0.77388    0.75408    0.29151    1.000
    N52      N        0.72613    0.82648    0.29246    1.000
    N53      N        0.23407    0.67541    0.22063    1.000
    N54      N        0.28191    0.75007    0.22662    1.000
    N55      N        0.39665    0.76295    0.27045    1.000
    N56      N        0.42865    0.69827    0.29203    1.000
    N57      N        0.97550    0.67896    0.07594    1.000
    N58      N        0.99389    0.75437    0.07347    1.000
    N59      N        0.94502    0.76268    0.00954    1.000
    N60      N        0.89490    0.69223    0.96748    1.000
    N61      N        0.29310    0.80687    0.03623    1.000
    N62      N        0.37057    0.74353    0.99659    1.000
    N63      N        0.38554    0.74803    0.92696    1.000
    N64      N        0.31770    0.81337    0.92032    1.000
    O1       O        0.57550    0.95270    0.70490    1.000
    O2       O        0.77920    0.98020    0.77490    1.000
    O3       O        0.29340    0.52460    0.74140    1.000
    O4       O        0.08200    0.54190    0.80270    1.000
    O5       O        0.63630    0.52350    0.53660    1.000
    O6       O        0.65120    0.52810    0.41660    1.000
    O7       O        0.37140    0.94490    0.57560    1.000
    O8       O        0.33780    0.95960    0.45970    1.000
    O9       O        0.04789    0.88134    0.68957    1.000
    O10      O        0.28822    0.90765    0.81766    1.000
    O11      O        0.56116    0.61558    0.82672    1.000
    O12      O        0.79527    0.60965    0.68195    1.000
    O13      O        0.07550    0.04730    0.79510    1.000
    O14      O        0.27920    0.01980    0.72510    1.000
    O15      O        0.79340    0.47540    0.75860    1.000
    O16      O        0.58200    0.45810    0.69730    1.000
    O17      O        0.13630    0.47650    0.96340    1.000
    O18      O        0.15120    0.47190    0.08340    1.000
    O19      O        0.87140    0.05510    0.92440    1.000
    O20      O        0.83780    0.04040    0.04030    1.000
    O21      O        0.54789    0.11866    0.81043    1.000
    O22      O        0.78822    0.09235    0.68234    1.000
    O23      O        0.06116    0.38442    0.67328    1.000
    O24      O        0.29527    0.39035    0.81805    1.000
    O25      O        0.42450    0.04730    0.29510    1.000
    O26      O        0.22080    0.01980    0.22510    1.000
    O27      O        0.70660    0.47540    0.25860    1.000
    O28      O        0.91800    0.45810    0.19730    1.000
    O29      O        0.36370    0.47650    0.46340    1.000
    O30      O        0.34880    0.47190    0.58340    1.000
    O31      O        0.62860    0.05510    0.42440    1.000
    O32      O        0.66220    0.04040    0.54030    1.000
    O33      O        0.95211    0.11866    0.31043    1.000
    O34      O        0.71178    0.09235    0.18234    1.000
    O35      O        0.43884    0.38442    0.17328    1.000
    O36      O        0.20473    0.39035    0.31805    1.000
    O37      O        0.92450    0.95270    0.20490    1.000
    O38      O        0.72080    0.98020    0.27490    1.000
    O39      O        0.20660    0.52460    0.24140    1.000
    O40      O        0.41800    0.54190    0.30270    1.000
    O41      O        0.86370    0.52350    0.03660    1.000
    O42      O        0.84880    0.52810    0.91660    1.000
    O43      O        0.12860    0.94490    0.07560    1.000
    O44      O        0.16220    0.95960    0.95970    1.000
    O45      O        0.45211    0.88134    0.18957    1.000
    O46      O        0.21178    0.90765    0.31766    1.000
    O47      O        0.93884    0.61558    0.32672    1.000
    O48      O        0.70473    0.60965    0.18195    1.000
