# CIF file generated by openbabel 3.1.0, see https://openbabel.org
data_I
_chemical_name_common 'image0'
_cell_length_a 9.1283
_cell_length_b 9.6603
_cell_length_c 11.5482
_cell_angle_alpha 106.829
_cell_angle_beta 93.772
_cell_angle_gamma 108.027
_space_group_name_H-M_alt 'P 1'
_space_group_name_Hall 'P 1'
loop_
    _symmetry_equiv_pos_as_xyz
    x,y,z
loop_
    _atom_site_label
    _atom_site_type_symbol
    _atom_site_fract_x
    _atom_site_fract_y
    _atom_site_fract_z
    _atom_site_occupancy
    Gd1      Gd       0.27849    0.52876    0.99084    1.000
    O1       O        0.13090    0.68140    0.04330    1.000
    O2       O        0.42280    0.38980    0.05130    1.000
    O3       O        0.11900    0.48610    0.78940    1.000
    O4       O        0.91120    0.73140    0.07950    1.000
    O5       O        0.30400    0.38300    0.78540    1.000
    O6       O        0.57290    0.25620    0.08060    1.000
    C1       C        0.01100    0.33500    0.53440    1.000
    H1       H        0.96800    0.40968    0.57615    1.000
    C2       C        0.96000    0.25900    0.41070    1.000
    H2       H        0.88496    0.28414    0.36760    1.000
    N1       N        0.09200    0.05640    0.14720    1.000
    C3       C        0.44450    0.27540    0.07700    1.000
    N2       N        0.19020    0.19070    0.14570    1.000
    C4       C        0.05350    0.77170    0.07370    1.000
    C5       C        0.12200    0.30400    0.59840    1.000
    C6       C        0.31180    0.15480    0.09960    1.000
    C7       C        0.28640    0.00080    0.06960    1.000
    H3       H        0.35348    0.94819    0.03456    1.000
    C8       C        0.14680    0.93890    0.09990    1.000
    C9       C        0.95890    0.06110    0.21210    1.000
    H4       H        0.88919    0.95471    0.19980    1.000
    H5       H        0.89797    0.11304    0.17746    1.000
    C10      C        0.01510    0.14670    0.34850    1.000
    C11      C        0.18950    0.39960    0.73080    1.000
    C12      C        0.18200    0.19420    0.53540    1.000
    H6       H        0.26231    0.17426    0.57760    1.000
    C13      C        0.12800    0.11400    0.41240    1.000
    H7       H        0.16655    0.03569    0.37113    1.000
    Gd2      Gd       0.72151    0.47124    0.00916    1.000
    O7       O        0.86910    0.31860    0.95670    1.000
    O8       O        0.57720    0.61020    0.94870    1.000
    O9       O        0.88100    0.51390    0.21060    1.000
    O10      O        0.08880    0.26860    0.92050    1.000
    O11      O        0.69600    0.61700    0.21460    1.000
    O12      O        0.42710    0.74380    0.91940    1.000
    C14      C        0.98900    0.66500    0.46560    1.000
    H8       H        0.03200    0.59032    0.42385    1.000
    C15      C        0.04000    0.74100    0.58930    1.000
    H9       H        0.11504    0.71586    0.63240    1.000
    N3       N        0.90800    0.94360    0.85280    1.000
    C16      C        0.55550    0.72460    0.92300    1.000
    N4       N        0.80980    0.80930    0.85430    1.000
    C17      C        0.94650    0.22830    0.92630    1.000
    C18      C        0.87800    0.69600    0.40160    1.000
    C19      C        0.68820    0.84520    0.90040    1.000
    C20      C        0.71360    0.99920    0.93040    1.000
    H10      H        0.64652    0.05181    0.96544    1.000
    C21      C        0.85320    0.06110    0.90010    1.000
    C22      C        0.04110    0.93890    0.78790    1.000
    H11      H        0.11081    0.04529    0.80020    1.000
    H12      H        0.10203    0.88696    0.82254    1.000
    C23      C        0.98490    0.85330    0.65150    1.000
    C24      C        0.81050    0.60040    0.26920    1.000
    C25      C        0.81800    0.80580    0.46460    1.000
    H13      H        0.73769    0.82574    0.42240    1.000
    C26      C        0.87200    0.88600    0.58760    1.000
    H14      H        0.83345    0.96431    0.62887    1.000
