# CIF file generated by openbabel 3.1.0, see https://openbabel.org
data_I
_chemical_name_common 'image0'
_cell_length_a 19.377
_cell_length_b 16.277
_cell_length_c 10.72
_cell_angle_alpha 90
_cell_angle_beta 101.384
_cell_angle_gamma 90
_space_group_name_H-M_alt 'P 1'
_space_group_name_Hall 'P 1'
loop_
    _symmetry_equiv_pos_as_xyz
    x,y,z
loop_
    _atom_site_label
    _atom_site_type_symbol
    _atom_site_fract_x
    _atom_site_fract_y
    _atom_site_fract_z
    _atom_site_occupancy
    Zn1      Zn       0.01063    0.65856    0.04794    1.000
    Zn2      Zn       0.49905    0.65312    0.01872    1.000
    C1       C        0.02362    0.77720    0.28550    1.000
    N1       N        0.02197    0.76390    0.40710    1.000
    C2       C        0.02150    0.85850    0.22170    1.000
    H1       H        0.99310    0.89550    0.26170    1.000
    H2       H        0.99800    0.85210    0.13360    1.000
    N2       N        0.02290    0.68180    0.42320    1.000
    C3       C        0.14590    0.85500    0.19890    1.000
    H3       H        0.14180    0.79860    0.18620    1.000
    N3       N        0.02400    0.64630    0.31490    1.000
    C4       C        0.20770    0.89390    0.19110    1.000
    H4       H        0.24540    0.86320    0.17450    1.000
    N4       N        0.02418    0.70520    0.22540    1.000
    C5       C        0.21520    0.97830    0.20730    1.000
    N5       N        0.49797    0.22724    0.32940    1.000
    C6       C        0.15770    0.02080    0.23580    1.000
    H5       H        0.16060    0.07720    0.24900    1.000
    N6       N        0.52224    0.30420    0.35640    1.000
    C7       C        0.09690    0.97960    0.24450    1.000
    H6       H        0.05910    0.00850    0.26420    1.000
    N7       N        0.52640    0.34130    0.25100    1.000
    C8       C        0.28150    0.02230    0.19470    1.000
    N8       N        0.50443    0.28922    0.15250    1.000
    C9       C        0.34530    0.98120    0.20750    1.000
    H7       H        0.34810    0.92560    0.22790    1.000
    N9       N        0.09130    0.89763    0.22470    1.000
    C10      C        0.79958    0.46130    0.93420    1.000
    O1       O        0.91905    0.61012    0.05120    1.000
    C11      C        0.73220    0.43070    0.93150    1.000
    H8       H        0.72340    0.37510    0.91670    1.000
    O2       O        0.89974    0.59080    0.84340    1.000
    C12      C        0.67758    0.48210    0.95080    1.000
    O3       O        0.64463    0.69669    0.00880    1.000
    C13      C        0.69165    0.56520    0.97690    1.000
    O4       O        0.58185    0.58570    0.03280    1.000
    C14      C        0.75897    0.59620    0.97620    1.000
    H9       H        0.76780    0.65190    0.99020    1.000
    O5       O        0.56201    0.45716    0.83560    1.000
    C15      C        0.81274    0.54490    0.95480    1.000
    O6       O        0.59506    0.39477    0.02130    1.000
    C16      C        0.85690    0.40170    0.92090    1.000
    O7       O        0.84199    0.33430    0.87320    1.000
    C17      C        0.60540    0.44420    0.93410    1.000
    O8       O        0.91944    0.42459    0.96530    1.000
    C18      C        0.63595    0.62170    0.00670    1.000
    C19      C        0.40420    0.02240    0.19010    1.000
    H10      H        0.44670    0.99440    0.19890    1.000
    N10      N        0.40156    0.10276    0.16030    1.000
    C20      C        0.34140    0.14480    0.15310    1.000
    H11      H        0.34020    0.20070    0.13460    1.000
    C21      C        0.28150    0.10610    0.17290    1.000
    H12      H        0.24070    0.13640    0.17150    1.000
    C22      C        0.46400    0.14410    0.12690    1.000
    H13      H        0.45310    0.15880    0.03750    1.000
    H14      H        0.50280    0.10540    0.13890    1.000
    C23      C        0.48710    0.21980    0.20340    1.000
    C24      C        0.88340    0.58330    0.94830    1.000
    Zn3      Zn       0.98937    0.15856    0.45206    1.000
    Zn4      Zn       0.50095    0.15312    0.48128    1.000
    C25      C        0.97638    0.27720    0.21450    1.000
    N11      N        0.97803    0.26390    0.09290    1.000
    C26      C        0.97850    0.35850    0.27830    1.000
    H15      H        0.00690    0.39550    0.23830    1.000
    H16      H        0.00200    0.35210    0.36640    1.000
    N12      N        0.97710    0.18180    0.07680    1.000
    C27      C        0.85410    0.35500    0.30110    1.000
    H17      H        0.85820    0.29860    0.31380    1.000
    N13      N        0.97600    0.14630    0.18510    1.000
    C28      C        0.79230    0.39390    0.30890    1.000
    H18      H        0.75460    0.36320    0.32550    1.000
    N14      N        0.97582    0.20520    0.27460    1.000
    C29      C        0.78480    0.47830    0.29270    1.000
    N15      N        0.50203    0.72724    0.17060    1.000
    C30      C        0.84230    0.52080    0.26420    1.000
    H19      H        0.83940    0.57720    0.25100    1.000
    N16      N        0.47776    0.80420    0.14360    1.000
    C31      C        0.90310    0.47960    0.25550    1.000
    H20      H        0.94090    0.50850    0.23580    1.000
    N17      N        0.47360    0.84130    0.24900    1.000
    C32      C        0.71850    0.52230    0.30530    1.000
    N18      N        0.49557    0.78922    0.34750    1.000
    C33      C        0.65470    0.48120    0.29250    1.000
    H21      H        0.65190    0.42560    0.27210    1.000
    N19      N        0.90870    0.39763    0.27530    1.000
    C34      C        0.20042    0.96130    0.56580    1.000
    O9       O        0.08095    0.11012    0.44880    1.000
    C35      C        0.26780    0.93070    0.56850    1.000
    H22      H        0.27660    0.87510    0.58330    1.000
    O10      O        0.10026    0.09080    0.65660    1.000
    C36      C        0.32242    0.98210    0.54920    1.000
    O11      O        0.35537    0.19669    0.49120    1.000
    C37      C        0.30835    0.06520    0.52310    1.000
    O12      O        0.41815    0.08570    0.46720    1.000
    C38      C        0.24103    0.09620    0.52380    1.000
    H23      H        0.23220    0.15190    0.50980    1.000
    O13      O        0.43799    0.95716    0.66440    1.000
    C39      C        0.18726    0.04490    0.54520    1.000
    O14      O        0.40494    0.89477    0.47870    1.000
    C40      C        0.14310    0.90170    0.57910    1.000
    O15      O        0.15801    0.83430    0.62680    1.000
    C41      C        0.39460    0.94420    0.56590    1.000
    O16      O        0.08056    0.92459    0.53470    1.000
    C42      C        0.36405    0.12170    0.49330    1.000
    C43      C        0.59580    0.52240    0.30990    1.000
    H24      H        0.55330    0.49440    0.30110    1.000
    N20      N        0.59844    0.60276    0.33970    1.000
    C44      C        0.65860    0.64480    0.34690    1.000
    H25      H        0.65980    0.70070    0.36540    1.000
    C45      C        0.71850    0.60610    0.32710    1.000
    H26      H        0.75930    0.63640    0.32850    1.000
    C46      C        0.53600    0.64410    0.37310    1.000
    H27      H        0.54690    0.65880    0.46250    1.000
    H28      H        0.49720    0.60540    0.36110    1.000
    C47      C        0.51290    0.71980    0.29660    1.000
    C48      C        0.11660    0.08330    0.55170    1.000
    Zn5      Zn       0.98937    0.34144    0.95206    1.000
    Zn6      Zn       0.50095    0.34688    0.98128    1.000
    C49      C        0.97638    0.22280    0.71450    1.000
    N21      N        0.97803    0.23610    0.59290    1.000
    C50      C        0.97850    0.14150    0.77830    1.000
    H29      H        0.00690    0.10450    0.73830    1.000
    H30      H        0.00200    0.14790    0.86640    1.000
    N22      N        0.97710    0.31820    0.57680    1.000
    C51      C        0.85410    0.14500    0.80110    1.000
    H31      H        0.85820    0.20140    0.81380    1.000
    N23      N        0.97600    0.35370    0.68510    1.000
    C52      C        0.79230    0.10610    0.80890    1.000
    H32      H        0.75460    0.13680    0.82550    1.000
    N24      N        0.97582    0.29480    0.77460    1.000
    C53      C        0.78480    0.02170    0.79270    1.000
    N25      N        0.50203    0.77276    0.67060    1.000
    C54      C        0.84230    0.97920    0.76420    1.000
    H33      H        0.83940    0.92280    0.75100    1.000
    N26      N        0.47776    0.69580    0.64360    1.000
    C55      C        0.90310    0.02040    0.75550    1.000
    H34      H        0.94090    0.99150    0.73580    1.000
    N27      N        0.47360    0.65870    0.74900    1.000
    C56      C        0.71850    0.97770    0.80530    1.000
    N28      N        0.49557    0.71078    0.84750    1.000
    C57      C        0.65470    0.01880    0.79250    1.000
    H35      H        0.65190    0.07440    0.77210    1.000
    N29      N        0.90870    0.10237    0.77530    1.000
    C58      C        0.20042    0.53870    0.06580    1.000
    O17      O        0.08095    0.38988    0.94880    1.000
    C59      C        0.26780    0.56930    0.06850    1.000
    H36      H        0.27660    0.62490    0.08330    1.000
    O18      O        0.10026    0.40920    0.15660    1.000
    C60      C        0.32242    0.51790    0.04920    1.000
    O19      O        0.35537    0.30331    0.99120    1.000
    C61      C        0.30835    0.43480    0.02310    1.000
    O20      O        0.41815    0.41430    0.96720    1.000
    C62      C        0.24103    0.40380    0.02380    1.000
    H37      H        0.23220    0.34810    0.00980    1.000
    O21      O        0.43799    0.54284    0.16440    1.000
    C63      C        0.18726    0.45510    0.04520    1.000
    O22      O        0.40494    0.60523    0.97870    1.000
    C64      C        0.14310    0.59830    0.07910    1.000
    O23      O        0.15801    0.66570    0.12680    1.000
    C65      C        0.39460    0.55580    0.06590    1.000
    O24      O        0.08056    0.57541    0.03470    1.000
    C66      C        0.36405    0.37830    0.99330    1.000
    C67      C        0.59580    0.97760    0.80990    1.000
    H38      H        0.55330    0.00560    0.80110    1.000
    N30      N        0.59844    0.89724    0.83970    1.000
    C68      C        0.65860    0.85520    0.84690    1.000
    H39      H        0.65980    0.79930    0.86540    1.000
    C69      C        0.71850    0.89390    0.82710    1.000
    H40      H        0.75930    0.86360    0.82850    1.000
    C70      C        0.53600    0.85590    0.87310    1.000
    H41      H        0.54690    0.84120    0.96250    1.000
    H42      H        0.49720    0.89460    0.86110    1.000
    C71      C        0.51290    0.78020    0.79660    1.000
    C72      C        0.11660    0.41670    0.05170    1.000
    Zn7      Zn       0.01063    0.84144    0.54794    1.000
    Zn8      Zn       0.49905    0.84688    0.51872    1.000
    C73      C        0.02362    0.72280    0.78550    1.000
    N31      N        0.02197    0.73610    0.90710    1.000
    C74      C        0.02150    0.64150    0.72170    1.000
    H43      H        0.99310    0.60450    0.76170    1.000
    H44      H        0.99800    0.64790    0.63360    1.000
    N32      N        0.02290    0.81820    0.92320    1.000
    C75      C        0.14590    0.64500    0.69890    1.000
    H45      H        0.14180    0.70140    0.68620    1.000
    N33      N        0.02400    0.85370    0.81490    1.000
    C76      C        0.20770    0.60610    0.69110    1.000
    H46      H        0.24540    0.63680    0.67450    1.000
    N34      N        0.02418    0.79480    0.72540    1.000
    C77      C        0.21520    0.52170    0.70730    1.000
    N35      N        0.49797    0.27276    0.82940    1.000
    C78      C        0.15770    0.47920    0.73580    1.000
    H47      H        0.16060    0.42280    0.74900    1.000
    N36      N        0.52224    0.19580    0.85640    1.000
    C79      C        0.09690    0.52040    0.74450    1.000
    H48      H        0.05910    0.49150    0.76420    1.000
    N37      N        0.52640    0.15870    0.75100    1.000
    C80      C        0.28150    0.47770    0.69470    1.000
    N38      N        0.50443    0.21078    0.65250    1.000
    C81      C        0.34530    0.51880    0.70750    1.000
    H49      H        0.34810    0.57440    0.72790    1.000
    N39      N        0.09130    0.60237    0.72470    1.000
    C82      C        0.79958    0.03870    0.43420    1.000
    O25      O        0.91905    0.88988    0.55120    1.000
    C83      C        0.73220    0.06930    0.43150    1.000
    H50      H        0.72340    0.12490    0.41670    1.000
    O26      O        0.89974    0.90920    0.34340    1.000
    C84      C        0.67758    0.01790    0.45080    1.000
    O27      O        0.64463    0.80331    0.50880    1.000
    C85      C        0.69165    0.93480    0.47690    1.000
    O28      O        0.58185    0.91430    0.53280    1.000
    C86      C        0.75897    0.90380    0.47620    1.000
    H51      H        0.76780    0.84810    0.49020    1.000
    O29      O        0.56201    0.04284    0.33560    1.000
    C87      C        0.81274    0.95510    0.45480    1.000
    O30      O        0.59506    0.10523    0.52130    1.000
    C88      C        0.85690    0.09830    0.42090    1.000
    O31      O        0.84199    0.16570    0.37320    1.000
    C89      C        0.60540    0.05580    0.43410    1.000
    O32      O        0.91944    0.07541    0.46530    1.000
    C90      C        0.63595    0.87830    0.50670    1.000
    C91      C        0.40420    0.47760    0.69010    1.000
    H52      H        0.44670    0.50560    0.69890    1.000
    N40      N        0.40156    0.39724    0.66030    1.000
    C92      C        0.34140    0.35520    0.65310    1.000
    H53      H        0.34020    0.29930    0.63460    1.000
    C93      C        0.28150    0.39390    0.67290    1.000
    H54      H        0.24070    0.36360    0.67150    1.000
    C94      C        0.46400    0.35590    0.62690    1.000
    H55      H        0.45310    0.34120    0.53750    1.000
    H56      H        0.50280    0.39460    0.63890    1.000
    C95      C        0.48710    0.28020    0.70340    1.000
    C96      C        0.88340    0.91670    0.44830    1.000
