# CIF file generated by openbabel 3.1.0, see https://openbabel.org
data_I
_chemical_name_common 'VIYZIO01_clean'
_cell_length_a 10.239
_cell_length_b 12.191
_cell_length_c 13.91
_cell_angle_alpha 94.6
_cell_angle_beta 93.75
_cell_angle_gamma 99.87
_space_group_name_H-M_alt 'P 1'
_space_group_name_Hall 'P 1'
loop_
    _symmetry_equiv_pos_as_xyz
    x,y,z
loop_
    _atom_site_label
    _atom_site_type_symbol
    _atom_site_fract_x
    _atom_site_fract_y
    _atom_site_fract_z
    _atom_site_occupancy
    Zn1      Zn       0.27797    0.98093    0.77177    1.000
    Zn2      Zn       0.23890    0.80378    0.53952    1.000
    H1       H        0.22960    0.66340    0.77450    1.000
    H2       H        0.33900    0.25770    0.59790    1.000
    H3       H        0.13660    0.47110    0.98860    1.000
    H4       H        0.04780    0.82230    0.37120    1.000
    H5       H        0.14240    0.03780    0.94990    1.000
    H6       H        0.63360    0.93160    0.52870    1.000
    H7       H        0.52070    0.76570    0.80830    1.000
    H8       H        0.41670    0.85880    0.91370    1.000
    H9       H        0.36170    0.42980    0.53600    1.000
    H10      H        0.05510    0.86320    0.21430    1.000
    H11      H        0.11880    0.98450    0.10280    1.000
    H12      H        0.40640    0.80680    0.06740    1.000
    H13      H        0.97300    0.76970    0.80260    1.000
    H14      H        0.43870    0.83450    0.22960    1.000
    H15      H        0.85970    0.69500    0.92480    1.000
    H16      H        0.42330    0.79760    0.38710    1.000
    H17      H        0.16220    0.64430    0.92790    1.000
    H18      H        0.18070    0.31830    0.90080    1.000
    H19      H        0.63210    0.69090    0.92550    1.000
    H20      H        0.85700    0.92130    0.52050    1.000
    C1       C        0.88490    0.86400    0.64930    1.000
    C2       C        0.31490    0.31760    0.63400    1.000
    C3       C        0.18120    0.95790    0.06580    1.000
    C4       C        0.81490    0.72510    0.87590    1.000
    C5       C        0.13170    0.85110    0.24840    1.000
    C6       C        0.67880    0.82100    0.73160    1.000
    C7       C        0.61320    0.87110    0.65700    1.000
    C8       C        0.23430    0.39420    0.77920    1.000
    C9       C        0.34970    0.85270    0.04470    1.000
    C10      C        0.32850    0.42160    0.59610    1.000
    C11      C        0.30350    0.61810    0.59740    1.000
    C12      C        0.29310    0.51110    0.64700    1.000
    C13      C        0.24800    0.50020    0.74070    1.000
    C14      C        0.61200    0.76880    0.80690    1.000
    C15      C        0.25560    0.18690    0.75540    1.000
    C16      C        0.35860    0.83460    0.25760    1.000
    C17      C        0.16500    0.47820    0.92690    1.000
    C18      C        0.88250    0.77090    0.80350    1.000
    C19      C        0.17970    0.58260    0.89040    1.000
    C20      C        0.26720    0.30100    0.72260    1.000
    C21      C        0.12800    0.82660    0.34280    1.000
    C22      C        0.47330    0.89400    0.66210    1.000
    C23      C        0.03290    0.87510    0.64510    1.000
    C24      C        0.34840    0.81170    0.35200    1.000
    C25      C        0.22020    0.59380    0.79880    1.000
    C26      C        0.25920    0.88910    0.10390    1.000
    C27      C        0.81800    0.82000    0.72960    1.000
    C28      C        0.19440    0.98850    0.97280    1.000
    C29      C        0.35540    0.88460    0.95220    1.000
    C30      C        0.19110    0.38670    0.87440    1.000
    C31      C        0.81460    0.89990    0.57490    1.000
    C32      C        0.67810    0.72350    0.87660    1.000
    C33      C        0.67900    0.90490    0.57930    1.000
    C34      C        0.24960    0.85790    0.20390    1.000
    N1       N        0.27780    0.95070    0.91460    1.000
    N2       N        0.23490    0.80870    0.39600    1.000
    O1       O        0.17660    0.15180    0.81590    1.000
    O2       O        0.07660    0.86660    0.56280    1.000
    O3       O        0.39450    0.64630    0.54760    1.000
    O4       O        0.10460    0.89580    0.72310    1.000
    O5       O        0.20730    0.67230    0.60710    1.000
    O6       O        0.43050    0.90660    0.74410    1.000
    O7       O        0.32460    0.12140    0.71610    1.000
    O8       O        0.40870    0.90200    0.58390    1.000
    Zn3      Zn       0.72203    0.01907    0.22823    1.000
    Zn4      Zn       0.76110    0.19622    0.46048    1.000
    H21      H        0.88120    0.01550    0.89720    1.000
    H22      H        0.95220    0.17770    0.62880    1.000
    H23      H        0.77040    0.33660    0.22550    1.000
    H24      H        0.66100    0.74230    0.40210    1.000
    H25      H        0.14030    0.30500    0.07520    1.000
    H26      H        0.57670    0.20240    0.61290    1.000
    H27      H        0.94490    0.13680    0.78570    1.000
    H28      H        0.14300    0.07870    0.47950    1.000
    H29      H        0.36640    0.06840    0.47130    1.000
    H30      H        0.63830    0.57020    0.46400    1.000
    H31      H        0.56130    0.16550    0.77040    1.000
    H32      H        0.47930    0.23430    0.19170    1.000
    H33      H        0.58330    0.14120    0.08630    1.000
    H34      H        0.86340    0.52890    0.01140    1.000
    H35      H        0.83780    0.35570    0.07210    1.000
    H36      H        0.81930    0.68170    0.09920    1.000
    H37      H        0.59360    0.19320    0.93260    1.000
    H38      H        0.02700    0.23030    0.19740    1.000
    H39      H        0.36790    0.30910    0.07450    1.000
    H40      H        0.85760    0.96220    0.05010    1.000
    C35      C        0.38800    0.23120    0.19310    1.000
    C36      C        0.18540    0.10010    0.42510    1.000
    C37      C        0.11510    0.13600    0.35070    1.000
    C38      C        0.32190    0.27650    0.12340    1.000
    C39      C        0.38680    0.12890    0.34300    1.000
    C40      C        0.96710    0.12490    0.35490    1.000
    C41      C        0.76570    0.60580    0.22080    1.000
    C42      C        0.81880    0.04210    0.93420    1.000
    C43      C        0.69650    0.38190    0.40260    1.000
    C44      C        0.67150    0.57840    0.40390    1.000
    C45      C        0.11750    0.22910    0.19650    1.000
    C46      C        0.75200    0.49980    0.25930    1.000
    C47      C        0.70690    0.48890    0.35300    1.000
    C48      C        0.87200    0.17340    0.65720    1.000
    C49      C        0.64460    0.11540    0.04780    1.000
    C50      C        0.83500    0.52180    0.07310    1.000
    C51      C        0.65160    0.18830    0.64800    1.000
    C52      C        0.65030    0.14730    0.95530    1.000
    C53      C        0.86830    0.14890    0.75160    1.000
    C54      C        0.75040    0.14210    0.79610    1.000
    C55      C        0.77980    0.40620    0.20120    1.000
    C56      C        0.74080    0.11090    0.89610    1.000
    C57      C        0.52670    0.10600    0.33790    1.000
    C58      C        0.74440    0.81310    0.24460    1.000
    C59      C        0.18200    0.18000    0.27040    1.000
    C60      C        0.80890    0.61330    0.12560    1.000
    C61      C        0.32120    0.17900    0.26840    1.000
    C62      C        0.68510    0.68240    0.36600    1.000
    C63      C        0.32100    0.09510    0.42070    1.000
    C64      C        0.18510    0.27490    0.12410    1.000
    C65      C        0.82030    0.41740    0.10960    1.000
    C66      C        0.73280    0.69900    0.27740    1.000
    C67      C        0.64140    0.16540    0.74240    1.000
    C68      C        0.80560    0.01150    0.02720    1.000
    N3       N        0.72220    0.04930    0.08540    1.000
    N4       N        0.76510    0.19130    0.60400    1.000
    O9       O        0.60550    0.35370    0.45240    1.000
    O10      O        0.67540    0.87860    0.28390    1.000
    O11      O        0.89540    0.10420    0.27690    1.000
    O12      O        0.92340    0.13340    0.43720    1.000
    O13      O        0.59130    0.09800    0.41610    1.000
    O14      O        0.56950    0.09340    0.25590    1.000
    O15      O        0.82340    0.84820    0.18410    1.000
    O16      O        0.79270    0.32770    0.39290    1.000
