# CIF file generated by openbabel 3.1.0, see https://openbabel.org
data_I
_chemical_name_common 'GUXQAR_clean'
_cell_length_a 6.3758
_cell_length_b 6.884
_cell_length_c 9.0254
_cell_angle_alpha 69.01
_cell_angle_beta 85.197
_cell_angle_gamma 79.452
_space_group_name_H-M_alt 'P 1'
_space_group_name_Hall 'P 1'
loop_
    _symmetry_equiv_pos_as_xyz
    x,y,z
loop_
    _atom_site_label
    _atom_site_type_symbol
    _atom_site_fract_x
    _atom_site_fract_y
    _atom_site_fract_z
    _atom_site_occupancy
    V1       V        0.00000    0.50000    0.50000    1.000
    V2       V        0.00000    0.00000    0.50000    1.000
    H1       H        0.82440    0.60860    0.99430    1.000
    H2       H        0.06570    0.83740    0.31660    1.000
    H3       H        0.17560    0.39140    0.00570    1.000
    H4       H        0.93430    0.16260    0.68340    1.000
    C1       C        0.39610    0.54390    0.85860    1.000
    C2       C        0.26770    0.61880    0.71130    1.000
    C3       C        0.59400    0.60640    0.85570    1.000
    C4       C        0.71740    0.68590    0.70310    1.000
    C5       C        0.69450    0.56410    0.99660    1.000
    C6       C        0.60390    0.45610    0.14140    1.000
    C7       C        0.73230    0.38120    0.28870    1.000
    C8       C        0.40600    0.39360    0.14430    1.000
    C9       C        0.28260    0.31410    0.29690    1.000
    C10      C        0.30550    0.43590    0.00340    1.000
    O1       O        0.01070    0.79890    0.39240    1.000
    O2       O        0.80670    0.84270    0.67910    1.000
    O3       O        0.17460    0.48870    0.68480    1.000
    O4       O        0.25200    0.81300    0.63100    1.000
    O5       O        0.73170    0.57790    0.61440    1.000
    O6       O        0.98930    0.20110    0.60760    1.000
    O7       O        0.19330    0.15730    0.32090    1.000
    O8       O        0.82540    0.51130    0.31520    1.000
    O9       O        0.74800    0.18700    0.36900    1.000
    O10      O        0.26830    0.42210    0.38560    1.000
