# CIF file generated by openbabel 3.1.0, see https://openbabel.org
data_I
_chemical_name_common 'image0'
_cell_length_a 16.3724
_cell_length_b 7.1673
_cell_length_c 14.1857
_cell_angle_alpha 90
_cell_angle_beta 90
_cell_angle_gamma 90
_space_group_name_H-M_alt 'P 1'
_space_group_name_Hall 'P 1'
loop_
    _symmetry_equiv_pos_as_xyz
    x,y,z
loop_
    _atom_site_label
    _atom_site_type_symbol
    _atom_site_fract_x
    _atom_site_fract_y
    _atom_site_fract_z
    _atom_site_occupancy
    O1       O        0.40867    0.43930    0.44765    1.000
    O2       O        0.46016    0.19013    0.52250    1.000
    O3       O        0.41573    0.05810    0.74825    1.000
    O4       O        0.43957    0.36127    0.71826    1.000
    C1       C        0.32398    0.28050    0.55610    1.000
    C2       C        0.32397    0.22290    0.65041    1.000
    C3       C        0.40460    0.30530    0.50457    1.000
    C4       C        0.40005    0.21280    0.70882    1.000
    O5       O        0.90867    0.93930    0.94765    1.000
    O6       O        0.96016    0.69013    0.02250    1.000
    O7       O        0.91573    0.55810    0.24825    1.000
    O8       O        0.93957    0.86127    0.21826    1.000
    C5       C        0.82398    0.78050    0.05610    1.000
    C6       C        0.82397    0.72290    0.15041    1.000
    C7       C        0.90460    0.80530    0.00457    1.000
    C8       C        0.90005    0.71280    0.20882    1.000
    O9       O        0.59133    0.56070    0.44765    1.000
    O10      O        0.53984    0.80987    0.52250    1.000
    O11      O        0.58427    0.94190    0.74825    1.000
    O12      O        0.56043    0.63873    0.71826    1.000
    C9       C        0.67602    0.71950    0.55610    1.000
    C10      C        0.67603    0.77710    0.65041    1.000
    C11      C        0.59540    0.69470    0.50457    1.000
    C12      C        0.59995    0.78720    0.70882    1.000
    O13      O        0.09133    0.06070    0.94765    1.000
    O14      O        0.03984    0.30987    0.02250    1.000
    O15      O        0.08427    0.44190    0.24825    1.000
    O16      O        0.06043    0.13873    0.21826    1.000
    C13      C        0.17602    0.21950    0.05610    1.000
    C14      C        0.17603    0.27710    0.15041    1.000
    C15      C        0.09540    0.19470    0.00457    1.000
    C16      C        0.09995    0.28720    0.20882    1.000
    O17      O        0.90867    0.56070    0.44765    1.000
    O18      O        0.96016    0.80987    0.52250    1.000
    O19      O        0.91573    0.94190    0.74825    1.000
    O20      O        0.93957    0.63873    0.71826    1.000
    C17      C        0.82398    0.71950    0.55610    1.000
    C18      C        0.82397    0.77710    0.65041    1.000
    C19      C        0.90460    0.69470    0.50457    1.000
    C20      C        0.90005    0.78720    0.70882    1.000
    O21      O        0.40867    0.06070    0.94765    1.000
    O22      O        0.46016    0.30987    0.02250    1.000
    O23      O        0.41573    0.44190    0.24825    1.000
    O24      O        0.43957    0.13873    0.21826    1.000
    C21      C        0.32398    0.21950    0.05610    1.000
    C22      C        0.32397    0.27710    0.15041    1.000
    C23      C        0.40460    0.19470    0.00457    1.000
    C24      C        0.40005    0.28720    0.20882    1.000
    O25      O        0.09133    0.43930    0.44765    1.000
    O26      O        0.03984    0.19013    0.52250    1.000
    O27      O        0.08427    0.05810    0.74825    1.000
    O28      O        0.06043    0.36127    0.71826    1.000
    C25      C        0.17602    0.28050    0.55610    1.000
    C26      C        0.17603    0.22290    0.65041    1.000
    C27      C        0.09540    0.30530    0.50457    1.000
    C28      C        0.09995    0.21280    0.70882    1.000
    O29      O        0.59133    0.93930    0.94765    1.000
    O30      O        0.53984    0.69013    0.02250    1.000
    O31      O        0.58427    0.55810    0.24825    1.000
    O32      O        0.56043    0.86127    0.21826    1.000
    C29      C        0.67602    0.78050    0.05610    1.000
    C30      C        0.67603    0.72290    0.15041    1.000
    C31      C        0.59540    0.80530    0.00457    1.000
    C32      C        0.59995    0.71280    0.20882    1.000
    Ni1      Ni       0.50000    0.50000    0.35324    1.000
    Ni2      Ni       0.00000    0.00000    0.85324    1.000
    Ni3      Ni       0.00000    0.50000    0.35324    1.000
    Ni4      Ni       0.50000    0.00000    0.85324    1.000
    C33      C        0.25000    0.30970    0.50968    1.000
    H1       H        0.25000    0.34990    0.44590    1.000
    C34      C        0.25000    0.19410    0.69672    1.000
    H2       H        0.25000    0.15440    0.76060    1.000
    C35      C        0.75000    0.80970    0.00968    1.000
    H3       H        0.75000    0.84990    0.94590    1.000
    C36      C        0.75000    0.69410    0.19672    1.000
    H4       H        0.75000    0.65440    0.26060    1.000
    C37      C        0.75000    0.69030    0.50968    1.000
    H5       H        0.75000    0.65010    0.44590    1.000
    C38      C        0.75000    0.80590    0.69672    1.000
    H6       H        0.75000    0.84560    0.76060    1.000
    C39      C        0.25000    0.19030    0.00968    1.000
    H7       H        0.25000    0.15010    0.94590    1.000
    C40      C        0.25000    0.30590    0.19672    1.000
    H8       H        0.25000    0.34560    0.26060    1.000
