# CIF file generated by openbabel 3.1.0, see https://openbabel.org
data_I
_chemical_name_common 'image0'
_cell_length_a 23.3533
_cell_length_b 20.5379
_cell_length_c 12.6226
_cell_angle_alpha 90
_cell_angle_beta 98.32
_cell_angle_gamma 90
_space_group_name_H-M_alt 'P 1'
_space_group_name_Hall 'P 1'
loop_
    _symmetry_equiv_pos_as_xyz
    x,y,z
loop_
    _atom_site_label
    _atom_site_type_symbol
    _atom_site_fract_x
    _atom_site_fract_y
    _atom_site_fract_z
    _atom_site_occupancy
    Ag1      Ag       0.26403    0.07676    0.57180    1.000
    N1       N        0.42210    0.04200    0.35200    1.000
    N2       N        0.49840    0.46740    0.40700    1.000
    N3       N        0.08230    0.15480    0.34100    1.000
    N4       N        0.33700    0.04900    0.48200    1.000
    N5       N        0.18530    0.11620    0.46200    1.000
    C1       C        0.39020    0.06640    0.51700    1.000
    H1       H        0.39900    0.08320    0.58540    1.000
    C2       C        0.02690    0.40200    0.18100    1.000
    H2       H        0.04980    0.42350    0.13770    1.000
    C3       C        0.15810    0.07700    0.38800    1.000
    H3       H        0.17250    0.03590    0.37730    1.000
    C4       C        0.16660    0.17500    0.47100    1.000
    H4       H        0.18730    0.20390    0.51900    1.000
    C5       C        0.43420    0.06100    0.45300    1.000
    H5       H        0.47220    0.06980    0.48240    1.000
    C6       C        0.11240    0.19600    0.40600    1.000
    H6       H        0.09940    0.23800    0.41090    1.000
    C7       C        0.36900    0.02400    0.32000    1.000
    H7       H        0.35960    0.00990    0.24950    1.000
    C8       C        0.54960    0.47610    0.47200    1.000
    H8       H        0.58380    0.46020    0.45260    1.000
    C9       C        0.47510    0.19990    0.32300    1.000
    H9       H        0.45770    0.17770    0.37400    1.000
    C10      C        0.47670    0.27300    0.31800    1.000
    H10      H        0.45950    0.29680    0.36740    1.000
    C11      C        0.10700    0.09940    0.32500    1.000
    H11      H        0.08990    0.07300    0.26930    1.000
    C12      C        0.32600    0.02400    0.38100    1.000
    H12      H        0.28920    0.00850    0.35390    1.000
    C13      C        0.01970    0.33140    0.17400    1.000
    H13      H        0.02930    0.30940    0.11480    1.000
    C14      C        0.44970    0.49140    0.43200    1.000
    H14      H        0.41530    0.48630    0.38590    1.000
    Ag2      Ag       0.73597    0.07676    0.92820    1.000
    N6       N        0.57790    0.04200    0.14800    1.000
    N7       N        0.50160    0.46740    0.09300    1.000
    N8       N        0.91770    0.15480    0.15900    1.000
    N9       N        0.66300    0.04900    0.01800    1.000
    N10      N        0.81470    0.11620    0.03800    1.000
    C15      C        0.60980    0.06640    0.98300    1.000
    H15      H        0.60100    0.08320    0.91460    1.000
    C16      C        0.97310    0.40200    0.31900    1.000
    H16      H        0.95020    0.42350    0.36230    1.000
    C17      C        0.84190    0.07700    0.11200    1.000
    H17      H        0.82750    0.03590    0.12270    1.000
    C18      C        0.83340    0.17500    0.02900    1.000
    H18      H        0.81270    0.20390    0.98100    1.000
    C19      C        0.56580    0.06100    0.04700    1.000
    H19      H        0.52780    0.06980    0.01760    1.000
    C20      C        0.88760    0.19600    0.09400    1.000
    H20      H        0.90060    0.23800    0.08910    1.000
    C21      C        0.63100    0.02400    0.18000    1.000
    H21      H        0.64040    0.00990    0.25050    1.000
    C22      C        0.45040    0.47610    0.02800    1.000
    H22      H        0.41620    0.46020    0.04740    1.000
    C23      C        0.52490    0.19990    0.17700    1.000
    H23      H        0.54230    0.17770    0.12600    1.000
    C24      C        0.52330    0.27300    0.18200    1.000
    H24      H        0.54050    0.29680    0.13260    1.000
    C25      C        0.89300    0.09940    0.17500    1.000
    H25      H        0.91010    0.07300    0.23070    1.000
    C26      C        0.67400    0.02400    0.11900    1.000
    H26      H        0.71080    0.00850    0.14610    1.000
    C27      C        0.98030    0.33140    0.32600    1.000
    H27      H        0.97070    0.30940    0.38520    1.000
    C28      C        0.55030    0.49140    0.06800    1.000
    H28      H        0.58470    0.48630    0.11410    1.000
    Ag3      Ag       0.73597    0.92324    0.42820    1.000
    N11      N        0.57790    0.95800    0.64800    1.000
    N12      N        0.50160    0.53260    0.59300    1.000
    N13      N        0.91770    0.84520    0.65900    1.000
    N14      N        0.66300    0.95100    0.51800    1.000
    N15      N        0.81470    0.88380    0.53800    1.000
    C29      C        0.60980    0.93360    0.48300    1.000
    H29      H        0.60100    0.91680    0.41460    1.000
    C30      C        0.97310    0.59800    0.81900    1.000
    H30      H        0.95020    0.57650    0.86230    1.000
    C31      C        0.84190    0.92300    0.61200    1.000
    H31      H        0.82750    0.96410    0.62270    1.000
    C32      C        0.83340    0.82500    0.52900    1.000
    H32      H        0.81270    0.79610    0.48100    1.000
    C33      C        0.56580    0.93900    0.54700    1.000
    H33      H        0.52780    0.93020    0.51760    1.000
    C34      C        0.88760    0.80400    0.59400    1.000
    H34      H        0.90060    0.76200    0.58910    1.000
    C35      C        0.63100    0.97600    0.68000    1.000
    H35      H        0.64040    0.99010    0.75050    1.000
    C36      C        0.45040    0.52390    0.52800    1.000
    H36      H        0.41620    0.53980    0.54740    1.000
    C37      C        0.52490    0.80010    0.67700    1.000
    H37      H        0.54230    0.82230    0.62600    1.000
    C38      C        0.52330    0.72700    0.68200    1.000
    H38      H        0.54050    0.70320    0.63260    1.000
    C39      C        0.89300    0.90060    0.67500    1.000
    H39      H        0.91010    0.92700    0.73070    1.000
    C40      C        0.67400    0.97600    0.61900    1.000
    H40      H        0.71080    0.99150    0.64610    1.000
    C41      C        0.98030    0.66860    0.82600    1.000
    H41      H        0.97070    0.69060    0.88520    1.000
    C42      C        0.55030    0.50860    0.56800    1.000
    H42      H        0.58470    0.51370    0.61410    1.000
    Ag4      Ag       0.26403    0.92324    0.07180    1.000
    N16      N        0.42210    0.95800    0.85200    1.000
    N17      N        0.49840    0.53260    0.90700    1.000
    N18      N        0.08230    0.84520    0.84100    1.000
    N19      N        0.33700    0.95100    0.98200    1.000
    N20      N        0.18530    0.88380    0.96200    1.000
    C43      C        0.39020    0.93360    0.01700    1.000
    H43      H        0.39900    0.91680    0.08540    1.000
    C44      C        0.02690    0.59800    0.68100    1.000
    H44      H        0.04980    0.57650    0.63770    1.000
    C45      C        0.15810    0.92300    0.88800    1.000
    H45      H        0.17250    0.96410    0.87730    1.000
    C46      C        0.16660    0.82500    0.97100    1.000
    H46      H        0.18730    0.79610    0.01900    1.000
    C47      C        0.43420    0.93900    0.95300    1.000
    H47      H        0.47220    0.93020    0.98240    1.000
    C48      C        0.11240    0.80400    0.90600    1.000
    H48      H        0.09940    0.76200    0.91090    1.000
    C49      C        0.36900    0.97600    0.82000    1.000
    H49      H        0.35960    0.99010    0.74950    1.000
    C50      C        0.54960    0.52390    0.97200    1.000
    H50      H        0.58380    0.53980    0.95260    1.000
    C51      C        0.47510    0.80010    0.82300    1.000
    H51      H        0.45770    0.82230    0.87400    1.000
    C52      C        0.47670    0.72700    0.81800    1.000
    H52      H        0.45950    0.70320    0.86740    1.000
    C53      C        0.10700    0.90060    0.82500    1.000
    H53      H        0.08990    0.92700    0.76930    1.000
    C54      C        0.32600    0.97600    0.88100    1.000
    H54      H        0.28920    0.99150    0.85390    1.000
    C55      C        0.01970    0.66860    0.67400    1.000
    H55      H        0.02930    0.69060    0.61480    1.000
    C56      C        0.44970    0.50860    0.93200    1.000
    H56      H        0.41530    0.51370    0.88590    1.000
    Ag5      Ag       0.50000    0.41300    0.25000    1.000
    Ag6      Ag       0.50000    0.05440    0.25000    1.000
    N21      N        0.50000    0.30300    0.25000    1.000
    N22      N        0.50000    0.17000    0.25000    1.000
    Ag7      Ag       0.50000    0.58700    0.75000    1.000
    Ag8      Ag       0.50000    0.94560    0.75000    1.000
    N23      N        0.50000    0.69700    0.75000    1.000
    N24      N        0.50000    0.83000    0.75000    1.000
    Ag9      Ag       0.00000    0.18670    0.25000    1.000
    N25      N        0.00000    0.43400    0.25000    1.000
    N26      N        0.00000    0.29900    0.25000    1.000
    Ag10     Ag       0.00000    0.81330    0.75000    1.000
    N27      N        0.00000    0.56600    0.75000    1.000
    N28      N        0.00000    0.70100    0.75000    1.000
    Ag11     Ag       0.76403    0.57676    0.57180    1.000
    N29      N        0.92210    0.54200    0.35200    1.000
    N30      N        0.99840    0.96740    0.40700    1.000
    N31      N        0.58230    0.65480    0.34100    1.000
    N32      N        0.83700    0.54900    0.48200    1.000
    N33      N        0.68530    0.61620    0.46200    1.000
    C57      C        0.89020    0.56640    0.51700    1.000
    H57      H        0.89900    0.58320    0.58540    1.000
    C58      C        0.52690    0.90200    0.18100    1.000
    H58      H        0.54980    0.92350    0.13770    1.000
    C59      C        0.65810    0.57700    0.38800    1.000
    H59      H        0.67250    0.53590    0.37730    1.000
    C60      C        0.66660    0.67500    0.47100    1.000
    H60      H        0.68730    0.70390    0.51900    1.000
    C61      C        0.93420    0.56100    0.45300    1.000
    H61      H        0.97220    0.56980    0.48240    1.000
    C62      C        0.61240    0.69600    0.40600    1.000
    H62      H        0.59940    0.73800    0.41090    1.000
    C63      C        0.86900    0.52400    0.32000    1.000
    H63      H        0.85960    0.50990    0.24950    1.000
    C64      C        0.04960    0.97610    0.47200    1.000
    H64      H        0.08380    0.96020    0.45260    1.000
    C65      C        0.97510    0.69990    0.32300    1.000
    H65      H        0.95770    0.67770    0.37400    1.000
    C66      C        0.97670    0.77300    0.31800    1.000
    H66      H        0.95950    0.79680    0.36740    1.000
    C67      C        0.60700    0.59940    0.32500    1.000
    H67      H        0.58990    0.57300    0.26930    1.000
    C68      C        0.82600    0.52400    0.38100    1.000
    H68      H        0.78920    0.50850    0.35390    1.000
    C69      C        0.51970    0.83140    0.17400    1.000
    H69      H        0.52930    0.80940    0.11480    1.000
    C70      C        0.94970    0.99140    0.43200    1.000
    H70      H        0.91530    0.98630    0.38590    1.000
    Ag12     Ag       0.23597    0.57676    0.92820    1.000
    N34      N        0.07790    0.54200    0.14800    1.000
    N35      N        0.00160    0.96740    0.09300    1.000
    N36      N        0.41770    0.65480    0.15900    1.000
    N37      N        0.16300    0.54900    0.01800    1.000
    N38      N        0.31470    0.61620    0.03800    1.000
    C71      C        0.10980    0.56640    0.98300    1.000
    H71      H        0.10100    0.58320    0.91460    1.000
    C72      C        0.47310    0.90200    0.31900    1.000
    H72      H        0.45020    0.92350    0.36230    1.000
    C73      C        0.34190    0.57700    0.11200    1.000
    H73      H        0.32750    0.53590    0.12270    1.000
    C74      C        0.33340    0.67500    0.02900    1.000
    H74      H        0.31270    0.70390    0.98100    1.000
    C75      C        0.06580    0.56100    0.04700    1.000
    H75      H        0.02780    0.56980    0.01760    1.000
    C76      C        0.38760    0.69600    0.09400    1.000
    H76      H        0.40060    0.73800    0.08910    1.000
    C77      C        0.13100    0.52400    0.18000    1.000
    H77      H        0.14040    0.50990    0.25050    1.000
    C78      C        0.95040    0.97610    0.02800    1.000
    H78      H        0.91620    0.96020    0.04740    1.000
    C79      C        0.02490    0.69990    0.17700    1.000
    H79      H        0.04230    0.67770    0.12600    1.000
    C80      C        0.02330    0.77300    0.18200    1.000
    H80      H        0.04050    0.79680    0.13260    1.000
    C81      C        0.39300    0.59940    0.17500    1.000
    H81      H        0.41010    0.57300    0.23070    1.000
    C82      C        0.17400    0.52400    0.11900    1.000
    H82      H        0.21080    0.50850    0.14610    1.000
    C83      C        0.48030    0.83140    0.32600    1.000
    H83      H        0.47070    0.80940    0.38520    1.000
    C84      C        0.05030    0.99140    0.06800    1.000
    H84      H        0.08470    0.98630    0.11410    1.000
    Ag13     Ag       0.23597    0.42324    0.42820    1.000
    N39      N        0.07790    0.45800    0.64800    1.000
    N40      N        0.00160    0.03260    0.59300    1.000
    N41      N        0.41770    0.34520    0.65900    1.000
    N42      N        0.16300    0.45100    0.51800    1.000
    N43      N        0.31470    0.38380    0.53800    1.000
    C85      C        0.10980    0.43360    0.48300    1.000
    H85      H        0.10100    0.41680    0.41460    1.000
    C86      C        0.47310    0.09800    0.81900    1.000
    H86      H        0.45020    0.07650    0.86230    1.000
    C87      C        0.34190    0.42300    0.61200    1.000
    H87      H        0.32750    0.46410    0.62270    1.000
    C88      C        0.33340    0.32500    0.52900    1.000
    H88      H        0.31270    0.29610    0.48100    1.000
    C89      C        0.06580    0.43900    0.54700    1.000
    H89      H        0.02780    0.43020    0.51760    1.000
    C90      C        0.38760    0.30400    0.59400    1.000
    H90      H        0.40060    0.26200    0.58910    1.000
    C91      C        0.13100    0.47600    0.68000    1.000
    H91      H        0.14040    0.49010    0.75050    1.000
    C92      C        0.95040    0.02390    0.52800    1.000
    H92      H        0.91620    0.03980    0.54740    1.000
    C93      C        0.02490    0.30010    0.67700    1.000
    H93      H        0.04230    0.32230    0.62600    1.000
    C94      C        0.02330    0.22700    0.68200    1.000
    H94      H        0.04050    0.20320    0.63260    1.000
    C95      C        0.39300    0.40060    0.67500    1.000
    H95      H        0.41010    0.42700    0.73070    1.000
    C96      C        0.17400    0.47600    0.61900    1.000
    H96      H        0.21080    0.49150    0.64610    1.000
    C97      C        0.48030    0.16860    0.82600    1.000
    H97      H        0.47070    0.19060    0.88520    1.000
    C98      C        0.05030    0.00860    0.56800    1.000
    H98      H        0.08470    0.01370    0.61410    1.000
    Ag14     Ag       0.76403    0.42324    0.07180    1.000
    N44      N        0.92210    0.45800    0.85200    1.000
    N45      N        0.99840    0.03260    0.90700    1.000
    N46      N        0.58230    0.34520    0.84100    1.000
    N47      N        0.83700    0.45100    0.98200    1.000
    N48      N        0.68530    0.38380    0.96200    1.000
    C99      C        0.89020    0.43360    0.01700    1.000
    H99      H        0.89900    0.41680    0.08540    1.000
    C100     C        0.52690    0.09800    0.68100    1.000
    H100     H        0.54980    0.07650    0.63770    1.000
    C101     C        0.65810    0.42300    0.88800    1.000
    H101     H        0.67250    0.46410    0.87730    1.000
    C102     C        0.66660    0.32500    0.97100    1.000
    H102     H        0.68730    0.29610    0.01900    1.000
    C103     C        0.93420    0.43900    0.95300    1.000
    H103     H        0.97220    0.43020    0.98240    1.000
    C104     C        0.61240    0.30400    0.90600    1.000
    H104     H        0.59940    0.26200    0.91090    1.000
    C105     C        0.86900    0.47600    0.82000    1.000
    H105     H        0.85960    0.49010    0.74950    1.000
    C106     C        0.04960    0.02390    0.97200    1.000
    H106     H        0.08380    0.03980    0.95260    1.000
    C107     C        0.97510    0.30010    0.82300    1.000
    H107     H        0.95770    0.32230    0.87400    1.000
    C108     C        0.97670    0.22700    0.81800    1.000
    H108     H        0.95950    0.20320    0.86740    1.000
    C109     C        0.60700    0.40060    0.82500    1.000
    H109     H        0.58990    0.42700    0.76930    1.000
    C110     C        0.82600    0.47600    0.88100    1.000
    H110     H        0.78920    0.49150    0.85390    1.000
    C111     C        0.51970    0.16860    0.67400    1.000
    H111     H        0.52930    0.19060    0.61480    1.000
    C112     C        0.94970    0.00860    0.93200    1.000
    H112     H        0.91530    0.01370    0.88590    1.000
    Ag15     Ag       0.00000    0.91300    0.25000    1.000
    Ag16     Ag       0.00000    0.55440    0.25000    1.000
    N49      N        0.00000    0.80300    0.25000    1.000
    N50      N        0.00000    0.67000    0.25000    1.000
    Ag17     Ag       0.00000    0.08700    0.75000    1.000
    Ag18     Ag       0.00000    0.44560    0.75000    1.000
    N51      N        0.00000    0.19700    0.75000    1.000
    N52      N        0.00000    0.33000    0.75000    1.000
    Ag19     Ag       0.50000    0.68670    0.25000    1.000
    N53      N        0.50000    0.93400    0.25000    1.000
    N54      N        0.50000    0.79900    0.25000    1.000
    Ag20     Ag       0.50000    0.31330    0.75000    1.000
    N55      N        0.50000    0.06600    0.75000    1.000
    N56      N        0.50000    0.20100    0.75000    1.000
