# CIF file generated by openbabel 3.1.0, see https://openbabel.org
data_I
_chemical_name_common 'image0'
_cell_length_a 8.99
_cell_length_b 12.14
_cell_length_c 8.511
_cell_angle_alpha 90
_cell_angle_beta 90
_cell_angle_gamma 90
_space_group_name_H-M_alt 'P 1'
_space_group_name_Hall 'P 1'
loop_
    _symmetry_equiv_pos_as_xyz
    x,y,z
loop_
    _atom_site_label
    _atom_site_type_symbol
    _atom_site_fract_x
    _atom_site_fract_y
    _atom_site_fract_z
    _atom_site_occupancy
    O1       O        0.16150    0.54670    0.16340    1.000
    O2       O        0.66150    0.04670    0.66340    1.000
    O3       O        0.83850    0.95330    0.16340    1.000
    O4       O        0.33850    0.45330    0.66340    1.000
    O5       O        0.83850    0.04670    0.83660    1.000
    O6       O        0.33850    0.54670    0.33660    1.000
    O7       O        0.16150    0.45330    0.83660    1.000
    O8       O        0.66150    0.95330    0.33660    1.000
    O9       O        0.83850    0.45330    0.83660    1.000
    O10      O        0.33850    0.95330    0.33660    1.000
    O11      O        0.16150    0.04670    0.83660    1.000
    O12      O        0.66150    0.54670    0.33660    1.000
    O13      O        0.16150    0.95330    0.16340    1.000
    O14      O        0.66150    0.45330    0.66340    1.000
    O15      O        0.83850    0.54670    0.16340    1.000
    O16      O        0.33850    0.04670    0.66340    1.000
    Mg1      Mg       0.00000    0.50000    0.00000    1.000
    Mg2      Mg       0.50000    0.00000    0.50000    1.000
    Mg3      Mg       0.00000    0.00000    0.00000    1.000
    Mg4      Mg       0.50000    0.50000    0.50000    1.000
    O17      O        0.00000    0.33990    0.08100    1.000
    O18      O        0.50000    0.83990    0.58100    1.000
    O19      O        0.00000    0.16010    0.08100    1.000
    O20      O        0.50000    0.66010    0.58100    1.000
    O21      O        0.00000    0.83990    0.91900    1.000
    O22      O        0.50000    0.33990    0.41900    1.000
    O23      O        0.00000    0.66010    0.91900    1.000
    O24      O        0.50000    0.16010    0.41900    1.000
    C1       C        0.00000    0.25000    0.05440    1.000
    C2       C        0.50000    0.75000    0.55440    1.000
    C3       C        0.00000    0.75000    0.94560    1.000
    C4       C        0.50000    0.25000    0.44560    1.000
    C5       C        0.25000    0.50150    0.25000    1.000
    C6       C        0.75000    0.99850    0.25000    1.000
    C7       C        0.75000    0.00150    0.75000    1.000
    C8       C        0.25000    0.49850    0.75000    1.000
    C9       C        0.75000    0.49850    0.75000    1.000
    C10      C        0.25000    0.99850    0.25000    1.000
    C11      C        0.25000    0.00150    0.75000    1.000
    C12      C        0.75000    0.50150    0.25000    1.000
