# CIF file generated by openbabel 3.1.0, see https://openbabel.org
data_I
_chemical_name_common 'VOCKUT_clean'
_cell_length_a 10.5344
_cell_length_b 11.9073
_cell_length_c 14.0461
_cell_angle_alpha 106.645
_cell_angle_beta 101.977
_cell_angle_gamma 112.078
_space_group_name_H-M_alt 'P 1'
_space_group_name_Hall 'P 1'
loop_
    _symmetry_equiv_pos_as_xyz
    x,y,z
loop_
    _atom_site_label
    _atom_site_type_symbol
    _atom_site_fract_x
    _atom_site_fract_y
    _atom_site_fract_z
    _atom_site_occupancy
    Co1      Co       0.80851    0.00864    0.78720    1.000
    Co2      Co       0.44871    0.72920    0.68837    1.000
    Co3      Co       0.19149    0.99136    0.21280    1.000
    Co4      Co       0.55129    0.27080    0.31163    1.000
    H1       H        0.56400    0.97500    0.79000    1.000
    H2       H        0.52400    0.95500    0.68900    1.000
    H3       H        0.84580    0.85060    0.46990    1.000
    H4       H        0.86120    0.72310    0.31510    1.000
    H5       H        0.74490    0.49600    0.25360    1.000
    H6       H        0.61420    0.51230    0.49640    1.000
    H7       H        0.86180    0.43040    0.63880    1.000
    H8       H        0.00630    0.48160    0.81170    1.000
    H9       H        0.98270    0.31250    0.86680    1.000
    H10      H        0.69440    0.04430    0.58560    1.000
    H11      H        0.56040    0.81940    0.03890    1.000
    H12      H        0.67680    0.89410    0.22390    1.000
    H13      H        0.92320    0.95620    0.29250    1.000
    H14      H        0.95270    0.89280    0.01020    1.000
    H15      H        0.00670    0.22620    0.13840    1.000
    H16      H        0.05940    0.30740    0.32320    1.000
    H17      H        0.88210    0.32540    0.38930    1.000
    H18      H        0.59290    0.16580    0.10040    1.000
    H19      H        0.43600    0.02500    0.21000    1.000
    H20      H        0.47600    0.04500    0.31100    1.000
    H21      H        0.15420    0.14940    0.53010    1.000
    H22      H        0.13880    0.27690    0.68490    1.000
    H23      H        0.25510    0.50400    0.74640    1.000
    H24      H        0.38580    0.48770    0.50360    1.000
    H25      H        0.13820    0.56960    0.36120    1.000
    H26      H        0.99370    0.51840    0.18830    1.000
    H27      H        0.01730    0.68750    0.13320    1.000
    H28      H        0.30560    0.95570    0.41440    1.000
    H29      H        0.43960    0.18060    0.96110    1.000
    H30      H        0.32320    0.10590    0.77610    1.000
    H31      H        0.07680    0.04380    0.70750    1.000
    H32      H        0.04730    0.10720    0.98980    1.000
    H33      H        0.99330    0.77380    0.86160    1.000
    H34      H        0.94060    0.69260    0.67680    1.000
    H35      H        0.11790    0.67460    0.61070    1.000
    H36      H        0.40710    0.83420    0.89960    1.000
    C1       C        0.70040    0.76670    0.59390    1.000
    C2       C        0.72420    0.69240    0.49810    1.000
    C3       C        0.80040    0.75680    0.44440    1.000
    C4       C        0.80890    0.68160    0.35320    1.000
    C5       C        0.74110    0.54640    0.31800    1.000
    C6       C        0.66380    0.55640    0.45840    1.000
    C7       C        0.66690    0.19060    0.48130    1.000
    C8       C        0.76290    0.23000    0.59390    1.000
    C9       C        0.85610    0.36190    0.66220    1.000
    C10      C        0.94020    0.39240    0.76440    1.000
    C11      C        0.92600    0.29100    0.79600    1.000
    C12      C        0.75720    0.13450    0.63210    1.000
    C13      C        0.69080    0.81700    0.88820    1.000
    C14      C        0.74740    0.85030    0.00560    1.000
    C15      C        0.66250    0.84870    0.06890    1.000
    C16      C        0.73120    0.89120    0.17790    1.000
    C17      C        0.87820    0.92880    0.21820    1.000
    C18      C        0.89460    0.89110    0.05370    1.000
    C19      C        0.74310    0.13070    0.98040    1.000
    C20      C        0.79240    0.18920    0.10010    1.000
    C21      C        0.93350    0.23100    0.16670    1.000
    C22      C        0.96460    0.28010    0.27570    1.000
    C23      C        0.85800    0.28910    0.31450    1.000
    C24      C        0.69030    0.19780    0.14600    1.000
    C25      C        0.29960    0.23330    0.40610    1.000
    C26      C        0.27580    0.30760    0.50190    1.000
    C27      C        0.19960    0.24320    0.55560    1.000
    C28      C        0.19110    0.31840    0.64680    1.000
    C29      C        0.25890    0.45360    0.68200    1.000
    C30      C        0.33620    0.44360    0.54160    1.000
    C31      C        0.33310    0.80940    0.51870    1.000
    C32      C        0.23710    0.77000    0.40610    1.000
    C33      C        0.14390    0.63810    0.33780    1.000
    C34      C        0.05980    0.60760    0.23560    1.000
    C35      C        0.07400    0.70900    0.20400    1.000
    C36      C        0.24280    0.86550    0.36790    1.000
    C37      C        0.30920    0.18300    0.11180    1.000
    C38      C        0.25260    0.14970    0.99440    1.000
    C39      C        0.33750    0.15130    0.93110    1.000
    C40      C        0.26880    0.10880    0.82210    1.000
    C41      C        0.12180    0.07120    0.78180    1.000
    C42      C        0.10540    0.10890    0.94630    1.000
    C43      C        0.25690    0.86930    0.01960    1.000
    C44      C        0.20760    0.81080    0.89990    1.000
    C45      C        0.06650    0.76900    0.83330    1.000
    C46      C        0.03540    0.71990    0.72430    1.000
    C47      C        0.14200    0.71090    0.68550    1.000
    C48      C        0.30970    0.80220    0.85400    1.000
    N1       N        0.67070    0.48230    0.36900    1.000
    N2       N        0.83600    0.16240    0.73210    1.000
    N3       N        0.96050    0.92860    0.15810    1.000
    N4       N        0.72140    0.24890    0.25160    1.000
    N5       N        0.32930    0.51770    0.63100    1.000
    N6       N        0.16400    0.83760    0.26790    1.000
    N7       N        0.03950    0.07140    0.84190    1.000
    N8       N        0.27860    0.75110    0.74840    1.000
    O1       O        0.59880    0.69950    0.61820    1.000
    O2       O        0.78480    0.88880    0.63980    1.000
    O3       O        0.59730    0.07050    0.42370    1.000
    O4       O        0.66650    0.28430    0.45650    1.000
    O5       O        0.78410    0.86420    0.84920    1.000
    O6       O        0.55340    0.74590    0.83770    1.000
    O7       O        0.83900    0.13360    0.94020    1.000
    O8       O        0.60820    0.08050    0.93080    1.000
    O9       O        0.57480    0.93980    0.74160    1.000
    O10      O        0.40120    0.30050    0.38180    1.000
    O11      O        0.21520    0.11120    0.36020    1.000
    O12      O        0.40270    0.92950    0.57630    1.000
    O13      O        0.33350    0.71570    0.54350    1.000
    O14      O        0.21590    0.13580    0.15080    1.000
    O15      O        0.44660    0.25410    0.16230    1.000
    O16      O        0.16100    0.86640    0.05980    1.000
    O17      O        0.39180    0.91950    0.06920    1.000
    O18      O        0.42520    0.06020    0.25840    1.000
