# CIF file generated by openbabel 3.1.0, see https://openbabel.org
data_I
_chemical_name_common 'image0'
_cell_length_a 14.779
_cell_length_b 23.754
_cell_length_c 9.1747
_cell_angle_alpha 90
_cell_angle_beta 90
_cell_angle_gamma 90
_space_group_name_H-M_alt 'P 1'
_space_group_name_Hall 'P 1'
loop_
    _symmetry_equiv_pos_as_xyz
    x,y,z
loop_
    _atom_site_label
    _atom_site_type_symbol
    _atom_site_fract_x
    _atom_site_fract_y
    _atom_site_fract_z
    _atom_site_occupancy
    Fe1      Fe       0.32330    0.80426    0.12751    1.000
    O1       O        0.23125    0.86914    0.07300    1.000
    O2       O        0.01717    0.92908    0.57720    1.000
    O3       O        0.91313    0.87481    0.68430    1.000
    O4       O        0.13252    0.92698    0.18140    1.000
    C1       C        0.18811    0.88773    0.18120    1.000
    C2       C        0.95627    0.89083    0.57820    1.000
    Cl1      Cl       0.18422    0.00396    0.47423    1.000
    Fe2      Fe       0.32330    0.30426    0.62751    1.000
    O5       O        0.23125    0.36914    0.57300    1.000
    O6       O        0.01717    0.42908    0.07720    1.000
    O7       O        0.91313    0.37481    0.18430    1.000
    O8       O        0.13252    0.42698    0.68140    1.000
    C3       C        0.18811    0.38773    0.68120    1.000
    C4       C        0.95627    0.39083    0.07820    1.000
    Cl2      Cl       0.18422    0.50396    0.97423    1.000
    Fe3      Fe       0.82330    0.80426    0.62751    1.000
    O9       O        0.73125    0.86914    0.57300    1.000
    O10      O        0.51717    0.92908    0.07720    1.000
    O11      O        0.41313    0.87481    0.18430    1.000
    O12      O        0.63252    0.92698    0.68140    1.000
    C5       C        0.68811    0.88773    0.68120    1.000
    C6       C        0.45627    0.89083    0.07820    1.000
    Cl3      Cl       0.68422    0.00396    0.97423    1.000
    Fe4      Fe       0.82330    0.30426    0.12751    1.000
    O13      O        0.73125    0.36914    0.07300    1.000
    O14      O        0.51717    0.42908    0.57720    1.000
    O15      O        0.41313    0.37481    0.68430    1.000
    O16      O        0.63252    0.42698    0.18140    1.000
    C7       C        0.68811    0.38773    0.18120    1.000
    C8       C        0.45627    0.39083    0.57820    1.000
    Cl4      Cl       0.68422    0.50396    0.47423    1.000
    Fe5      Fe       0.67670    0.19574    0.12751    1.000
    O17      O        0.76875    0.13086    0.07300    1.000
    O18      O        0.98283    0.07092    0.57720    1.000
    O19      O        0.08687    0.12519    0.68430    1.000
    O20      O        0.86748    0.07302    0.18140    1.000
    C9       C        0.81189    0.11227    0.18120    1.000
    C10      C        0.04373    0.10917    0.57820    1.000
    Cl5      Cl       0.81578    0.99604    0.47423    1.000
    Fe6      Fe       0.67670    0.69574    0.62751    1.000
    O21      O        0.76875    0.63086    0.57300    1.000
    O22      O        0.98283    0.57092    0.07720    1.000
    O23      O        0.08687    0.62519    0.18430    1.000
    O24      O        0.86748    0.57302    0.68140    1.000
    C11      C        0.81189    0.61227    0.68120    1.000
    C12      C        0.04373    0.60917    0.07820    1.000
    Cl6      Cl       0.81578    0.49604    0.97423    1.000
    Fe7      Fe       0.17670    0.19574    0.62751    1.000
    O25      O        0.26875    0.13086    0.57300    1.000
    O26      O        0.48283    0.07092    0.07720    1.000
    O27      O        0.58687    0.12519    0.18430    1.000
    O28      O        0.36748    0.07302    0.68140    1.000
    C13      C        0.31189    0.11227    0.68120    1.000
    C14      C        0.54373    0.10917    0.07820    1.000
    Cl7      Cl       0.31578    0.99604    0.97423    1.000
    Fe8      Fe       0.17670    0.69574    0.12751    1.000
    O29      O        0.26875    0.63086    0.07300    1.000
    O30      O        0.48283    0.57092    0.57720    1.000
    O31      O        0.58687    0.62519    0.68430    1.000
    O32      O        0.36748    0.57302    0.18140    1.000
    C15      C        0.31189    0.61227    0.18120    1.000
    C16      C        0.54373    0.60917    0.57820    1.000
    Cl8      Cl       0.31578    0.49604    0.47423    1.000
    Fe9      Fe       0.57330    0.44574    0.37751    1.000
    O33      O        0.48125    0.38086    0.32300    1.000
    O34      O        0.26717    0.32092    0.82720    1.000
    O35      O        0.16313    0.37519    0.93430    1.000
    O36      O        0.38252    0.32302    0.43140    1.000
    C17      C        0.43811    0.36227    0.43120    1.000
    C18      C        0.20627    0.35917    0.82820    1.000
    Cl9      Cl       0.43422    0.24604    0.72423    1.000
    Fe10     Fe       0.57330    0.94574    0.87751    1.000
    O37      O        0.48125    0.88086    0.82300    1.000
    O38      O        0.26717    0.82092    0.32720    1.000
    O39      O        0.16313    0.87519    0.43430    1.000
    O40      O        0.38252    0.82302    0.93140    1.000
    C19      C        0.43811    0.86227    0.93120    1.000
    C20      C        0.20627    0.85917    0.32820    1.000
    Cl10     Cl       0.43422    0.74604    0.22423    1.000
    Fe11     Fe       0.07330    0.44574    0.87751    1.000
    O41      O        0.98125    0.38086    0.82300    1.000
    O42      O        0.76717    0.32092    0.32720    1.000
    O43      O        0.66313    0.37519    0.43430    1.000
    O44      O        0.88252    0.32302    0.93140    1.000
    C21      C        0.93811    0.36227    0.93120    1.000
    C22      C        0.70627    0.35917    0.32820    1.000
    Cl11     Cl       0.93422    0.24604    0.22423    1.000
    Fe12     Fe       0.07330    0.94574    0.37751    1.000
    O45      O        0.98125    0.88086    0.32300    1.000
    O46      O        0.76717    0.82092    0.82720    1.000
    O47      O        0.66313    0.87519    0.93430    1.000
    O48      O        0.88252    0.82302    0.43140    1.000
    C23      C        0.93811    0.86227    0.43120    1.000
    C24      C        0.70627    0.85917    0.82820    1.000
    Cl12     Cl       0.93422    0.74604    0.72423    1.000
    Fe13     Fe       0.92670    0.05426    0.37751    1.000
    O49      O        0.01875    0.11914    0.32300    1.000
    O50      O        0.23283    0.17908    0.82720    1.000
    O51      O        0.33687    0.12481    0.93430    1.000
    O52      O        0.11748    0.17698    0.43140    1.000
    C25      C        0.06189    0.13773    0.43120    1.000
    C26      C        0.29373    0.14083    0.82820    1.000
    Cl13     Cl       0.06578    0.25396    0.72423    1.000
    Fe14     Fe       0.92670    0.55426    0.87751    1.000
    O53      O        0.01875    0.61914    0.82300    1.000
    O54      O        0.23283    0.67908    0.32720    1.000
    O55      O        0.33687    0.62481    0.43430    1.000
    O56      O        0.11748    0.67698    0.93140    1.000
    C27      C        0.06189    0.63773    0.93120    1.000
    C28      C        0.29373    0.64083    0.32820    1.000
    Cl14     Cl       0.06578    0.75396    0.22423    1.000
    Fe15     Fe       0.42670    0.05426    0.87751    1.000
    O57      O        0.51875    0.11914    0.82300    1.000
    O58      O        0.73283    0.17908    0.32720    1.000
    O59      O        0.83687    0.12481    0.43430    1.000
    O60      O        0.61748    0.17698    0.93140    1.000
    C29      C        0.56189    0.13773    0.93120    1.000
    C30      C        0.79373    0.14083    0.32820    1.000
    Cl15     Cl       0.56578    0.25396    0.22423    1.000
    Fe16     Fe       0.42670    0.55426    0.37751    1.000
    O61      O        0.51875    0.61914    0.32300    1.000
    O62      O        0.73283    0.67908    0.82720    1.000
    O63      O        0.83687    0.62481    0.93430    1.000
    O64      O        0.61748    0.67698    0.43140    1.000
    C31      C        0.56189    0.63773    0.43120    1.000
    C32      C        0.79373    0.64083    0.82820    1.000
    Cl16     Cl       0.56578    0.75396    0.72423    1.000
    O65      O        0.00000    0.00000    0.30540    1.000
    O66      O        0.00000    0.50000    0.80540    1.000
    O67      O        0.50000    0.00000    0.80540    1.000
    O68      O        0.50000    0.50000    0.30540    1.000
    O69      O        0.25000    0.25000    0.55540    1.000
    O70      O        0.25000    0.75000    0.05540    1.000
    O71      O        0.75000    0.25000    0.05540    1.000
    O72      O        0.75000    0.75000    0.55540    1.000
