# CIF file generated by openbabel 3.1.0, see https://openbabel.org
data_I
_chemical_name_common 'image0'
_cell_length_a 14.392
_cell_length_b 15.699
_cell_length_c 10.741
_cell_angle_alpha 90
_cell_angle_beta 90
_cell_angle_gamma 90
_space_group_name_H-M_alt 'P 1'
_space_group_name_Hall 'P 1'
loop_
    _symmetry_equiv_pos_as_xyz
    x,y,z
loop_
    _atom_site_label
    _atom_site_type_symbol
    _atom_site_fract_x
    _atom_site_fract_y
    _atom_site_fract_z
    _atom_site_occupancy
    C1       C        0.86822    0.62066    0.59470    1.000
    O1       O        0.89813    0.59164    0.48820    1.000
    O2       O        0.80545    0.67684    0.59780    1.000
    O3       O        0.90138    0.59050    0.69760    1.000
    O4       O        0.79832    0.67123    0.88646    1.000
    H1       H        0.77010    0.68890    0.96430    1.000
    H2       H        0.86510    0.67760    0.89440    1.000
    H3       H        0.81240    0.44900    0.11700    1.000
    H4       H        0.86310    0.52300    0.09710    1.000
    C2       C        0.86822    0.12066    0.09470    1.000
    O5       O        0.89813    0.09164    0.98820    1.000
    O6       O        0.80545    0.17684    0.09780    1.000
    O7       O        0.90138    0.09050    0.19760    1.000
    O8       O        0.79832    0.17123    0.38646    1.000
    H5       H        0.77010    0.18890    0.46430    1.000
    H6       H        0.86510    0.17760    0.39440    1.000
    H7       H        0.81240    0.94900    0.61700    1.000
    H8       H        0.86310    0.02300    0.59710    1.000
    C3       C        0.36822    0.62066    0.09470    1.000
    O9       O        0.39813    0.59164    0.98820    1.000
    O10      O        0.30545    0.67684    0.09780    1.000
    O11      O        0.40138    0.59050    0.19760    1.000
    O12      O        0.29832    0.67123    0.38646    1.000
    H9       H        0.27010    0.68890    0.46430    1.000
    H10      H        0.36510    0.67760    0.39440    1.000
    H11      H        0.31240    0.44900    0.61700    1.000
    H12      H        0.36310    0.52300    0.59710    1.000
    C4       C        0.36822    0.12066    0.59470    1.000
    O13      O        0.39813    0.09164    0.48820    1.000
    O14      O        0.30545    0.17684    0.59780    1.000
    O15      O        0.40138    0.09050    0.69760    1.000
    O16      O        0.29832    0.17123    0.88646    1.000
    H13      H        0.27010    0.18890    0.96430    1.000
    H14      H        0.36510    0.17760    0.89440    1.000
    H15      H        0.31240    0.94900    0.11700    1.000
    H16      H        0.36310    0.02300    0.09710    1.000
    C5       C        0.13178    0.37934    0.59470    1.000
    O17      O        0.10187    0.40836    0.48820    1.000
    O18      O        0.19455    0.32316    0.59780    1.000
    O19      O        0.09862    0.40950    0.69760    1.000
    O20      O        0.20168    0.32877    0.88646    1.000
    H17      H        0.22990    0.31110    0.96430    1.000
    H18      H        0.13490    0.32240    0.89440    1.000
    H19      H        0.18760    0.55100    0.11700    1.000
    H20      H        0.13690    0.47700    0.09710    1.000
    C6       C        0.13178    0.87934    0.09470    1.000
    O21      O        0.10187    0.90836    0.98820    1.000
    O22      O        0.19455    0.82316    0.09780    1.000
    O23      O        0.09862    0.90950    0.19760    1.000
    O24      O        0.20168    0.82877    0.38646    1.000
    H21      H        0.22990    0.81110    0.46430    1.000
    H22      H        0.13490    0.82240    0.39440    1.000
    H23      H        0.18760    0.05100    0.61700    1.000
    H24      H        0.13690    0.97700    0.59710    1.000
    C7       C        0.63178    0.37934    0.09470    1.000
    O25      O        0.60187    0.40836    0.98820    1.000
    O26      O        0.69455    0.32316    0.09780    1.000
    O27      O        0.59862    0.40950    0.19760    1.000
    O28      O        0.70168    0.32877    0.38646    1.000
    H25      H        0.72990    0.31110    0.46430    1.000
    H26      H        0.63490    0.32240    0.39440    1.000
    H27      H        0.68760    0.55100    0.61700    1.000
    H28      H        0.63690    0.47700    0.59710    1.000
    C8       C        0.63178    0.87934    0.59470    1.000
    O29      O        0.60187    0.90836    0.48820    1.000
    O30      O        0.69455    0.82316    0.59780    1.000
    O31      O        0.59862    0.90950    0.69760    1.000
    O32      O        0.70168    0.82877    0.88646    1.000
    H29      H        0.72990    0.81110    0.96430    1.000
    H30      H        0.63490    0.82240    0.89440    1.000
    H31      H        0.68760    0.05100    0.11700    1.000
    H32      H        0.63690    0.97700    0.09710    1.000
    C9       C        0.86822    0.37934    0.59470    1.000
    O33      O        0.89813    0.40836    0.48820    1.000
    O34      O        0.80545    0.32316    0.59780    1.000
    O35      O        0.90138    0.40950    0.69760    1.000
    O36      O        0.79832    0.32877    0.88646    1.000
    H33      H        0.77010    0.31110    0.96430    1.000
    H34      H        0.86510    0.32240    0.89440    1.000
    H35      H        0.81240    0.55100    0.11700    1.000
    H36      H        0.86310    0.47700    0.09710    1.000
    C10      C        0.86822    0.87934    0.09470    1.000
    O37      O        0.89813    0.90836    0.98820    1.000
    O38      O        0.80545    0.82316    0.09780    1.000
    O39      O        0.90138    0.90950    0.19760    1.000
    O40      O        0.79832    0.82877    0.38646    1.000
    H37      H        0.77010    0.81110    0.46430    1.000
    H38      H        0.86510    0.82240    0.39440    1.000
    H39      H        0.81240    0.05100    0.61700    1.000
    H40      H        0.86310    0.97700    0.59710    1.000
    C11      C        0.36822    0.37934    0.09470    1.000
    O41      O        0.39813    0.40836    0.98820    1.000
    O42      O        0.30545    0.32316    0.09780    1.000
    O43      O        0.40138    0.40950    0.19760    1.000
    O44      O        0.29832    0.32877    0.38646    1.000
    H41      H        0.27010    0.31110    0.46430    1.000
    H42      H        0.36510    0.32240    0.39440    1.000
    H43      H        0.31240    0.55100    0.61700    1.000
    H44      H        0.36310    0.47700    0.59710    1.000
    C12      C        0.36822    0.87934    0.59470    1.000
    O45      O        0.39813    0.90836    0.48820    1.000
    O46      O        0.30545    0.82316    0.59780    1.000
    O47      O        0.40138    0.90950    0.69760    1.000
    O48      O        0.29832    0.82877    0.88646    1.000
    H45      H        0.27010    0.81110    0.96430    1.000
    H46      H        0.36510    0.82240    0.89440    1.000
    H47      H        0.31240    0.05100    0.11700    1.000
    H48      H        0.36310    0.97700    0.09710    1.000
    C13      C        0.13178    0.62066    0.59470    1.000
    O49      O        0.10187    0.59164    0.48820    1.000
    O50      O        0.19455    0.67684    0.59780    1.000
    O51      O        0.09862    0.59050    0.69760    1.000
    O52      O        0.20168    0.67123    0.88646    1.000
    H49      H        0.22990    0.68890    0.96430    1.000
    H50      H        0.13490    0.67760    0.89440    1.000
    H51      H        0.18760    0.44900    0.11700    1.000
    H52      H        0.13690    0.52300    0.09710    1.000
    C14      C        0.13178    0.12066    0.09470    1.000
    O53      O        0.10187    0.09164    0.98820    1.000
    O54      O        0.19455    0.17684    0.09780    1.000
    O55      O        0.09862    0.09050    0.19760    1.000
    O56      O        0.20168    0.17123    0.38646    1.000
    H53      H        0.22990    0.18890    0.46430    1.000
    H54      H        0.13490    0.17760    0.39440    1.000
    H55      H        0.18760    0.94900    0.61700    1.000
    H56      H        0.13690    0.02300    0.59710    1.000
    C15      C        0.63178    0.62066    0.09470    1.000
    O57      O        0.60187    0.59164    0.98820    1.000
    O58      O        0.69455    0.67684    0.09780    1.000
    O59      O        0.59862    0.59050    0.19760    1.000
    O60      O        0.70168    0.67123    0.38646    1.000
    H57      H        0.72990    0.68890    0.46430    1.000
    H58      H        0.63490    0.67760    0.39440    1.000
    H59      H        0.68760    0.44900    0.61700    1.000
    H60      H        0.63690    0.52300    0.59710    1.000
    C16      C        0.63178    0.12066    0.59470    1.000
    O61      O        0.60187    0.09164    0.48820    1.000
    O62      O        0.69455    0.17684    0.59780    1.000
    O63      O        0.59862    0.09050    0.69760    1.000
    O64      O        0.70168    0.17123    0.88646    1.000
    H61      H        0.72990    0.18890    0.96430    1.000
    H62      H        0.63490    0.17760    0.89440    1.000
    H63      H        0.68760    0.94900    0.11700    1.000
    H64      H        0.63690    0.02300    0.09710    1.000
    Ru1      Ru       0.00000    0.50000    0.48603    1.000
    Ru2      Ru       0.00000    0.50000    0.69584    1.000
    Cl1      Cl       0.00000    0.50000    0.25026    1.000
    Ru3      Ru       0.00000    0.00000    0.98603    1.000
    Ru4      Ru       0.00000    0.00000    0.19584    1.000
    Cl2      Cl       0.00000    0.00000    0.75026    1.000
    Ru5      Ru       0.50000    0.50000    0.98603    1.000
    Ru6      Ru       0.50000    0.50000    0.19584    1.000
    Cl3      Cl       0.50000    0.50000    0.75026    1.000
    Ru7      Ru       0.50000    0.00000    0.48603    1.000
    Ru8      Ru       0.50000    0.00000    0.69584    1.000
    Cl4      Cl       0.50000    0.00000    0.25026    1.000
    Mg1      Mg       0.75000    0.75000    0.74120    1.000
    Mg2      Mg       0.75000    0.25000    0.24120    1.000
    Mg3      Mg       0.25000    0.25000    0.74120    1.000
    Mg4      Mg       0.25000    0.75000    0.24120    1.000
    Mg5      Mg       0.75000    0.25000    0.74120    1.000
    Mg6      Mg       0.75000    0.75000    0.24120    1.000
    Mg7      Mg       0.25000    0.75000    0.74120    1.000
    Mg8      Mg       0.25000    0.25000    0.24120    1.000
    K1       K        0.75552    0.50000    0.84080    1.000
    O65      O        0.80990    0.50000    0.09050    1.000
    K2       K        0.75552    0.00000    0.34080    1.000
    O66      O        0.80990    0.00000    0.59050    1.000
    K3       K        0.25552    0.50000    0.34080    1.000
    O67      O        0.30990    0.50000    0.59050    1.000
    K4       K        0.25552    0.00000    0.84080    1.000
    O68      O        0.30990    0.00000    0.09050    1.000
    K5       K        0.24448    0.50000    0.84080    1.000
    O69      O        0.19010    0.50000    0.09050    1.000
    K6       K        0.24448    0.00000    0.34080    1.000
    O70      O        0.19010    0.00000    0.59050    1.000
    K7       K        0.74448    0.50000    0.34080    1.000
    O71      O        0.69010    0.50000    0.59050    1.000
    K8       K        0.74448    0.00000    0.84080    1.000
    O72      O        0.69010    0.00000    0.09050    1.000
