# CIF file generated by openbabel 3.1.0, see https://openbabel.org
data_I
_chemical_name_common 'CAKXOD_clean'
_cell_length_a 7.955
_cell_length_b 9.693
_cell_length_c 15.869
_cell_angle_alpha 90
_cell_angle_beta 90
_cell_angle_gamma 96.356
_space_group_name_H-M_alt 'P 1'
_space_group_name_Hall 'P 1'
loop_
    _symmetry_equiv_pos_as_xyz
    x,y,z
loop_
    _atom_site_label
    _atom_site_type_symbol
    _atom_site_fract_x
    _atom_site_fract_y
    _atom_site_fract_z
    _atom_site_occupancy
    Gd1      Gd       0.92145    0.13389    0.32692    1.000
    Gd2      Gd       0.57855    0.36611    0.82692    1.000
    Gd3      Gd       0.07855    0.86611    0.67308    1.000
    Gd4      Gd       0.42145    0.63389    0.17308    1.000
    H1       H        0.96860    0.68496    0.38791    1.000
    H2       H        0.61737    0.34707    0.25147    1.000
    H3       H        0.53140    0.81504    0.88791    1.000
    H4       H        0.88263    0.15293    0.75147    1.000
    H5       H        0.03140    0.31504    0.61209    1.000
    H6       H        0.38263    0.65293    0.74853    1.000
    H7       H        0.46860    0.18496    0.11209    1.000
    H8       H        0.11737    0.84707    0.24853    1.000
    C1       C        0.91390    0.47450    0.36817    1.000
    C2       C        0.74380    0.79580    0.28400    1.000
    C3       C        0.89610    0.61520    0.35887    1.000
    C4       C        0.76960    0.64780    0.30604    1.000
    C5       C        0.05700    0.42360    0.41852    1.000
    C6       C        0.69020    0.41870    0.27990    1.000
    C7       C        0.90990    0.00930    0.51549    1.000
    C8       C        0.58610    0.02550    0.86817    1.000
    C9       C        0.75620    0.70420    0.78400    1.000
    C10      C        0.60390    0.88480    0.85887    1.000
    C11      C        0.73040    0.85220    0.80604    1.000
    C12      C        0.44300    0.07640    0.91852    1.000
    C13      C        0.80980    0.08130    0.77990    1.000
    C14      C        0.59010    0.49070    0.01549    1.000
    C15      C        0.08610    0.52550    0.63183    1.000
    C16      C        0.25620    0.20420    0.71600    1.000
    C17      C        0.10390    0.38480    0.64113    1.000
    C18      C        0.23040    0.35220    0.69396    1.000
    C19      C        0.94300    0.57640    0.58148    1.000
    C20      C        0.30980    0.58130    0.72010    1.000
    C21      C        0.09010    0.99070    0.48451    1.000
    C22      C        0.41390    0.97450    0.13183    1.000
    C23      C        0.24380    0.29580    0.21600    1.000
    C24      C        0.39610    0.11520    0.14113    1.000
    C25      C        0.26960    0.14780    0.19396    1.000
    C26      C        0.55700    0.92360    0.08148    1.000
    C27      C        0.19020    0.91870    0.22010    1.000
    C28      C        0.40990    0.50930    0.98451    1.000
    N1       N        0.81160    0.37700    0.32850    1.000
    N2       N        0.66390    0.55000    0.26690    1.000
    N3       N        0.68840    0.12300    0.82850    1.000
    N4       N        0.83610    0.95000    0.76690    1.000
    N5       N        0.18840    0.62300    0.67150    1.000
    N6       N        0.33610    0.45000    0.73310    1.000
    N7       N        0.31160    0.87700    0.17150    1.000
    N8       N        0.16390    0.05000    0.23310    1.000
    O1       O        0.04830    0.29420    0.42928    1.000
    O2       O        0.85090    0.88950    0.31083    1.000
    O3       O        0.81200    0.05650    0.46417    1.000
    O4       O        0.61920    0.81300    0.23900    1.000
    O5       O        0.87490    0.97640    0.59018    1.000
    O6       O        0.17190    0.51160    0.44286    1.000
    O7       O        0.45170    0.20580    0.92928    1.000
    O8       O        0.64910    0.61050    0.81083    1.000
    O9       O        0.68800    0.44350    0.96417    1.000
    O10      O        0.88080    0.68700    0.73900    1.000
    O11      O        0.62510    0.52360    0.09018    1.000
    O12      O        0.32810    0.98840    0.94286    1.000
    O13      O        0.95170    0.70580    0.57072    1.000
    O14      O        0.14910    0.11050    0.68917    1.000
    O15      O        0.18800    0.94350    0.53583    1.000
    O16      O        0.38080    0.18700    0.76100    1.000
    O17      O        0.12510    0.02360    0.40982    1.000
    O18      O        0.82810    0.48840    0.55714    1.000
    O19      O        0.54830    0.79420    0.07072    1.000
    O20      O        0.35090    0.38950    0.18917    1.000
    O21      O        0.31200    0.55650    0.03583    1.000
    O22      O        0.11920    0.31300    0.26100    1.000
    O23      O        0.37490    0.47640    0.90982    1.000
    O24      O        0.67190    0.01160    0.05714    1.000
