# CIF file generated by openbabel 3.1.0, see https://openbabel.org
data_I
_chemical_name_common 'image0'
_cell_length_a 17.399
_cell_length_b 9.479
_cell_length_c 7.055
_cell_angle_alpha 90
_cell_angle_beta 108.026
_cell_angle_gamma 90
_space_group_name_H-M_alt 'P 1'
_space_group_name_Hall 'P 1'
loop_
    _symmetry_equiv_pos_as_xyz
    x,y,z
loop_
    _atom_site_label
    _atom_site_type_symbol
    _atom_site_fract_x
    _atom_site_fract_y
    _atom_site_fract_z
    _atom_site_occupancy
    P1       P        0.73643    0.30095    0.68446    1.000
    P2       P        0.00106    0.20465    0.00007    1.000
    O1       O        0.73727    0.13740    0.68540    1.000
    O2       O        0.99243    0.36270    0.98090    1.000
    O3       O        0.82632    0.34470    0.77510    1.000
    O4       O        0.70181    0.35410    0.47210    1.000
    O5       O        0.04944    0.15650    0.20800    1.000
    O6       O        0.68890    0.35150    0.81840    1.000
    O7       O        0.03480    0.14660    0.84420    1.000
    O8       O        0.91368    0.14450    0.95780    1.000
    H1       H        0.88200    0.20900    0.89700    1.000
    P3       P        0.23643    0.80095    0.68446    1.000
    P4       P        0.50106    0.70465    0.00007    1.000
    O9       O        0.23727    0.63740    0.68540    1.000
    O10      O        0.49243    0.86270    0.98090    1.000
    O11      O        0.32632    0.84470    0.77510    1.000
    O12      O        0.20181    0.85410    0.47210    1.000
    O13      O        0.54944    0.65650    0.20800    1.000
    O14      O        0.18890    0.85150    0.81840    1.000
    O15      O        0.53480    0.64660    0.84420    1.000
    O16      O        0.41368    0.64450    0.95780    1.000
    H2       H        0.38200    0.70900    0.89700    1.000
    P5       P        0.73643    0.69905    0.68446    1.000
    P6       P        0.00106    0.79535    0.00007    1.000
    O17      O        0.73727    0.86260    0.68540    1.000
    O18      O        0.99243    0.63730    0.98090    1.000
    O19      O        0.82632    0.65530    0.77510    1.000
    O20      O        0.70181    0.64590    0.47210    1.000
    O21      O        0.04944    0.84350    0.20800    1.000
    O22      O        0.68890    0.64850    0.81840    1.000
    O23      O        0.03480    0.85340    0.84420    1.000
    O24      O        0.91368    0.85550    0.95780    1.000
    H3       H        0.88200    0.79100    0.89700    1.000
    P7       P        0.23643    0.19905    0.68446    1.000
    P8       P        0.50106    0.29535    0.00007    1.000
    O25      O        0.23727    0.36260    0.68540    1.000
    O26      O        0.49243    0.13730    0.98090    1.000
    O27      O        0.32632    0.15530    0.77510    1.000
    O28      O        0.20181    0.14590    0.47210    1.000
    O29      O        0.54944    0.34350    0.20800    1.000
    O30      O        0.18890    0.14850    0.81840    1.000
    O31      O        0.53480    0.35340    0.84420    1.000
    O32      O        0.41368    0.35550    0.95780    1.000
    H4       H        0.38200    0.29100    0.89700    1.000
    V1       V        0.65030    0.00000    0.56220    1.000
    V2       V        0.15030    0.50000    0.56220    1.000
    V3       V        0.90806    0.50000    0.83112    1.000
    V4       V        0.63215    0.50000    0.31055    1.000
    V5       V        0.60796    0.50000    0.79382    1.000
    O33      O        0.66440    0.50000    0.11870    1.000
    O34      O        0.57170    0.50000    0.55100    1.000
    V6       V        0.40806    0.00000    0.83112    1.000
    V7       V        0.13215    0.00000    0.31055    1.000
    V8       V        0.10796    0.00000    0.79382    1.000
    O35      O        0.16440    0.00000    0.11870    1.000
    O36      O        0.07170    0.00000    0.55100    1.000
