# CIF file generated by openbabel 3.1.0, see https://openbabel.org
data_I
_chemical_name_common 'image0'
_cell_length_a 12.866
_cell_length_b 12.776
_cell_length_c 16.802
_cell_angle_alpha 90
_cell_angle_beta 105.303
_cell_angle_gamma 90
_space_group_name_H-M_alt 'P 1'
_space_group_name_Hall 'P 1'
loop_
    _symmetry_equiv_pos_as_xyz
    x,y,z
loop_
    _atom_site_label
    _atom_site_type_symbol
    _atom_site_fract_x
    _atom_site_fract_y
    _atom_site_fract_z
    _atom_site_occupancy
    Ag1      Ag       0.08520    0.65692    0.90537    1.000
    Ag2      Ag       0.14402    0.38866    0.02428    1.000
    N1       N        0.28190    0.24670    0.63670    1.000
    N2       N        0.17360    0.24330    0.59530    1.000
    N3       N        0.19180    0.32750    0.70980    1.000
    N4       N        0.16760    0.37690    0.77600    1.000
    N5       N        0.13050    0.39940    0.89240    1.000
    N6       N        0.13100    0.49690    0.85530    1.000
    N7       N        0.42340    0.78020    0.33010    1.000
    N8       N        0.33400    0.79820    0.35960    1.000
    N9       N        0.28080    0.71970    0.24310    1.000
    N10      N        0.21500    0.67490    0.17250    1.000
    N11      N        0.12480    0.65280    0.04570    1.000
    N12      N        0.13290    0.55640    0.08740    1.000
    C1       C        0.15430    0.48080    0.78540    1.000
    H1       H        0.16080    0.53240    0.74800    1.000
    C2       C        0.15310    0.32870    0.84350    1.000
    H2       H        0.15820    0.25710    0.85350    1.000
    C3       C        0.28970    0.29800    0.70580    1.000
    H3       H        0.35360    0.31150    0.74570    1.000
    C4       C        0.12060    0.29230    0.63950    1.000
    H4       H        0.04630    0.30190    0.62570    1.000
    C5       C        0.38750    0.73410    0.25870    1.000
    H5       H        0.42950    0.71430    0.22390    1.000
    C6       C        0.24990    0.76210    0.30690    1.000
    H6       H        0.17970    0.76480    0.31190    1.000
    C7       C        0.17460    0.72110    0.09830    1.000
    H7       H        0.18180    0.79160    0.08700    1.000
    C8       C        0.18660    0.57280    0.16190    1.000
    H8       H        0.20360    0.52200    0.20290    1.000
    Ag3      Ag       0.41480    0.15692    0.59463    1.000
    Ag4      Ag       0.35598    0.88866    0.47572    1.000
    N13      N        0.21810    0.74670    0.86330    1.000
    N14      N        0.32640    0.74330    0.90470    1.000
    N15      N        0.30820    0.82750    0.79020    1.000
    N16      N        0.33240    0.87690    0.72400    1.000
    N17      N        0.36950    0.89940    0.60760    1.000
    N18      N        0.36900    0.99690    0.64470    1.000
    N19      N        0.07660    0.28020    0.16990    1.000
    N20      N        0.16600    0.29820    0.14040    1.000
    N21      N        0.21920    0.21970    0.25690    1.000
    N22      N        0.28500    0.17490    0.32750    1.000
    N23      N        0.37520    0.15280    0.45430    1.000
    N24      N        0.36710    0.05640    0.41260    1.000
    C9       C        0.34570    0.98080    0.71460    1.000
    H9       H        0.33920    0.03240    0.75200    1.000
    C10      C        0.34690    0.82870    0.65650    1.000
    H10      H        0.34180    0.75710    0.64650    1.000
    C11      C        0.21030    0.79800    0.79420    1.000
    H11      H        0.14640    0.81150    0.75430    1.000
    C12      C        0.37940    0.79230    0.86050    1.000
    H12      H        0.45370    0.80190    0.87430    1.000
    C13      C        0.11250    0.23410    0.24130    1.000
    H13      H        0.07050    0.21430    0.27610    1.000
    C14      C        0.25010    0.26210    0.19310    1.000
    H14      H        0.32030    0.26480    0.18810    1.000
    C15      C        0.32540    0.22110    0.40170    1.000
    H15      H        0.31820    0.29160    0.41300    1.000
    C16      C        0.31340    0.07280    0.33810    1.000
    H16      H        0.29640    0.02200    0.29710    1.000
    Ag5      Ag       0.91480    0.34308    0.09463    1.000
    Ag6      Ag       0.85598    0.61134    0.97572    1.000
    N25      N        0.71810    0.75330    0.36330    1.000
    N26      N        0.82640    0.75670    0.40470    1.000
    N27      N        0.80820    0.67250    0.29020    1.000
    N28      N        0.83240    0.62310    0.22400    1.000
    N29      N        0.86950    0.60060    0.10760    1.000
    N30      N        0.86900    0.50310    0.14470    1.000
    N31      N        0.57660    0.21980    0.66990    1.000
    N32      N        0.66600    0.20180    0.64040    1.000
    N33      N        0.71920    0.28030    0.75690    1.000
    N34      N        0.78500    0.32510    0.82750    1.000
    N35      N        0.87520    0.34720    0.95430    1.000
    N36      N        0.86710    0.44360    0.91260    1.000
    C17      C        0.84570    0.51920    0.21460    1.000
    H17      H        0.83920    0.46760    0.25200    1.000
    C18      C        0.84690    0.67130    0.15650    1.000
    H18      H        0.84180    0.74290    0.14650    1.000
    C19      C        0.71030    0.70200    0.29420    1.000
    H19      H        0.64640    0.68850    0.25430    1.000
    C20      C        0.87940    0.70770    0.36050    1.000
    H20      H        0.95370    0.69810    0.37430    1.000
    C21      C        0.61250    0.26590    0.74130    1.000
    H21      H        0.57050    0.28570    0.77610    1.000
    C22      C        0.75010    0.23790    0.69310    1.000
    H22      H        0.82030    0.23520    0.68810    1.000
    C23      C        0.82540    0.27890    0.90170    1.000
    H23      H        0.81820    0.20840    0.91300    1.000
    C24      C        0.81340    0.42720    0.83810    1.000
    H24      H        0.79640    0.47800    0.79710    1.000
    Ag7      Ag       0.58520    0.84308    0.40537    1.000
    Ag8      Ag       0.64402    0.11134    0.52428    1.000
    N37      N        0.78190    0.25330    0.13670    1.000
    N38      N        0.67360    0.25670    0.09530    1.000
    N39      N        0.69180    0.17250    0.20980    1.000
    N40      N        0.66760    0.12310    0.27600    1.000
    N41      N        0.63050    0.10060    0.39240    1.000
    N42      N        0.63100    0.00310    0.35530    1.000
    N43      N        0.92340    0.71980    0.83010    1.000
    N44      N        0.83400    0.70180    0.85960    1.000
    N45      N        0.78080    0.78030    0.74310    1.000
    N46      N        0.71500    0.82510    0.67250    1.000
    N47      N        0.62480    0.84720    0.54570    1.000
    N48      N        0.63290    0.94360    0.58740    1.000
    C25      C        0.65430    0.01920    0.28540    1.000
    H25      H        0.66080    0.96760    0.24800    1.000
    C26      C        0.65310    0.17130    0.34350    1.000
    H26      H        0.65820    0.24290    0.35350    1.000
    C27      C        0.78970    0.20200    0.20580    1.000
    H27      H        0.85360    0.18850    0.24570    1.000
    C28      C        0.62060    0.20770    0.13950    1.000
    H28      H        0.54630    0.19810    0.12570    1.000
    C29      C        0.88750    0.76590    0.75870    1.000
    H29      H        0.92950    0.78570    0.72390    1.000
    C30      C        0.74990    0.73790    0.80690    1.000
    H30      H        0.67970    0.73520    0.81190    1.000
    C31      C        0.67460    0.77890    0.59830    1.000
    H31      H        0.68180    0.70840    0.58700    1.000
    C32      C        0.68660    0.92720    0.66190    1.000
    H32      H        0.70360    0.97800    0.70290    1.000
