# CIF file generated by openbabel 3.1.0, see https://openbabel.org
data_I
_chemical_name_common 'image0'
_cell_length_a 9.0582
_cell_length_b 9.0582
_cell_length_c 12.566
_cell_angle_alpha 90
_cell_angle_beta 90
_cell_angle_gamma 90
_space_group_name_H-M_alt 'P 1'
_space_group_name_Hall 'P 1'
loop_
    _symmetry_equiv_pos_as_xyz
    x,y,z
loop_
    _atom_site_label
    _atom_site_type_symbol
    _atom_site_fract_x
    _atom_site_fract_y
    _atom_site_fract_z
    _atom_site_occupancy
    C1       C        0.75760    0.54170    0.12020    1.000
    O1       O        0.88560    0.59800    0.13789    1.000
    O2       O        0.68510    0.59680    0.03874    1.000
    O3       O        0.70320    0.44040    0.17585    1.000
    C2       C        0.24240    0.45830    0.12020    1.000
    O4       O        0.11440    0.40200    0.13789    1.000
    O5       O        0.31490    0.40320    0.03874    1.000
    O6       O        0.29680    0.55960    0.17585    1.000
    C3       C        0.54170    0.24240    0.87980    1.000
    O7       O        0.59800    0.11440    0.86211    1.000
    O8       O        0.59680    0.31490    0.96126    1.000
    O9       O        0.44040    0.29680    0.82415    1.000
    C4       C        0.45830    0.75760    0.87980    1.000
    O10      O        0.40200    0.88560    0.86211    1.000
    O11      O        0.40320    0.68510    0.96126    1.000
    O12      O        0.55960    0.70320    0.82415    1.000
    C5       C        0.25760    0.95830    0.62020    1.000
    O13      O        0.38560    0.90200    0.63789    1.000
    O14      O        0.18510    0.90320    0.53874    1.000
    O15      O        0.20320    0.05960    0.67585    1.000
    C6       C        0.74240    0.04170    0.62020    1.000
    O16      O        0.61440    0.09800    0.63789    1.000
    O17      O        0.81490    0.09680    0.53874    1.000
    O18      O        0.79680    0.94040    0.67585    1.000
    C7       C        0.04170    0.25760    0.37980    1.000
    O19      O        0.09800    0.38560    0.36211    1.000
    O20      O        0.09680    0.18510    0.46126    1.000
    O21      O        0.94040    0.20320    0.32415    1.000
    C8       C        0.95830    0.74240    0.37980    1.000
    O22      O        0.90200    0.61440    0.36211    1.000
    O23      O        0.90320    0.81490    0.46126    1.000
    O24      O        0.05960    0.79680    0.32415    1.000
    Cu1      Cu       0.00000    0.50000    0.25000    1.000
    Cu2      Cu       0.50000    0.00000    0.75000    1.000
    Cu3      Cu       0.50000    0.50000    0.00000    1.000
    Cu4      Cu       0.00000    0.00000    0.50000    1.000
