# CIF file generated by openbabel 3.1.0, see https://openbabel.org
data_I
_chemical_name_common 'image0'
_cell_length_a 16.2825
_cell_length_b 33.8405
_cell_length_c 16.9649
_cell_angle_alpha 90
_cell_angle_beta 90
_cell_angle_gamma 90
_space_group_name_H-M_alt 'P 1'
_space_group_name_Hall 'P 1'
loop_
    _symmetry_equiv_pos_as_xyz
    x,y,z
loop_
    _atom_site_label
    _atom_site_type_symbol
    _atom_site_fract_x
    _atom_site_fract_y
    _atom_site_fract_z
    _atom_site_occupancy
    Eu1      Eu       0.48219    0.55374    0.44509    1.000
    Zn1      Zn       0.73878    0.49086    0.71149    1.000
    Zn2      Zn       0.56346    0.66557    0.17236    1.000
    Zn3      Zn       0.26818    0.65983    0.93124    1.000
    O1       O        0.56590    0.51502    0.53240    1.000
    O2       O        0.63980    0.47992    0.61370    1.000
    O3       O        0.59830    0.58773    0.45320    1.000
    O4       O        0.67800    0.63899    0.48380    1.000
    O5       O        0.46310    0.58714    0.33140    1.000
    O6       O        0.48480    0.64140    0.26200    1.000
    O7       O        0.55950    0.51717    0.35770    1.000
    O8       O        0.67140    0.49498    0.29890    1.000
    O9       O        0.61940    0.70860    0.95300    1.000
    O10      O        0.63200    0.68820    0.07750    1.000
    O11      O        0.48480    0.70890    0.84480    1.000
    O12      O        0.36620    0.67648    0.84820    1.000
    O13      O        0.63090    0.70730    0.75640    1.000
    O14      O        0.68600    0.66354    0.67380    1.000
    N1       N        0.74760    0.53930    0.64420    1.000
    N2       N        0.76300    0.59885    0.59020    1.000
    N3       N        0.62230    0.61401    0.19540    1.000
    N4       N        0.69330    0.55866    0.20900    1.000
    N5       N        0.47210    0.67260    0.09400    1.000
    N6       N        0.36970    0.66730    0.00590    1.000
    N7       N        0.72650    0.71667    0.56640    1.000
    N8       N        0.64910    0.48190    0.79520    1.000
    N9       N        0.34620    0.42410    0.07600    1.000
    C1       C        0.62760    0.51210    0.57670    1.000
    C2       C        0.68730    0.54380    0.58670    1.000
    C3       C        0.69890    0.58100    0.55390    1.000
    C4       C        0.65420    0.60420    0.49360    1.000
    C5       C        0.79050    0.57300    0.64350    1.000
    C6       C        0.86310    0.58120    0.69540    1.000
    H1       H        0.91280    0.57790    0.66560    1.000
    H2       H        0.86300    0.56310    0.73910    1.000
    H3       H        0.86010    0.60780    0.71480    1.000
    C7       C        0.50500    0.60690    0.28370    1.000
    C8       C        0.58290    0.59100    0.25020    1.000
    C9       C        0.62630    0.55720    0.26020    1.000
    C10      C        0.61670    0.52100    0.30910    1.000
    C11      C        0.68900    0.59300    0.17260    1.000
    C12      C        0.75130    0.60900    0.11640    1.000
    H4       H        0.78090    0.63020    0.14110    1.000
    H5       H        0.72420    0.61870    0.07010    1.000
    H6       H        0.78900    0.58840    0.10200    1.000
    C13      C        0.58920    0.69540    0.01560    1.000
    C14      C        0.50100    0.68520    0.02040    1.000
    C15      C        0.43800    0.68190    0.96720    1.000
    C16      C        0.43030    0.68970    0.88180    1.000
    C17      C        0.39200    0.66320    0.08140    1.000
    C18      C        0.33400    0.65110    0.14590    1.000
    H7       H        0.31550    0.67420    0.17360    1.000
    H8       H        0.36170    0.63380    0.18190    1.000
    H9       H        0.28760    0.63770    0.12340    1.000
    C19      C        0.66820    0.69850    0.69270    1.000
    C20      C        0.69220    0.72930    0.63590    1.000
    C21      C        0.57290    0.49900    0.79650    1.000
    H10      H        0.56110    0.51830    0.75920    1.000
    C22      C        0.51330    0.48910    0.85000    1.000
    H11      H        0.46210    0.50130    0.84810    1.000
    C23      C        0.52970    0.46090    0.90680    1.000
    C24      C        0.60910    0.44590    0.90860    1.000
    H12      H        0.62480    0.42890    0.94900    1.000
    C25      C        0.66390    0.45590    0.85150    1.000
    H13      H        0.71500    0.44360    0.85220    1.000
    C26      C        0.33600    0.45520    0.02900    1.000
    H14      H        0.28690    0.46900    0.03350    1.000
    C27      C        0.39180    0.46860    0.97460    1.000
    H15      H        0.38000    0.49080    0.94410    1.000
    C28      C        0.46700    0.44850    0.96520    1.000
    C29      C        0.47890    0.41650    0.01510    1.000
    H16      H        0.52820    0.40280    0.01250    1.000
    C30      C        0.41970    0.40430    0.06860    1.000
    H17      H        0.42980    0.38230    0.10010    1.000
    H18      H        0.78670    0.77660    0.42510    1.000
    H19      H        0.83760    0.73880    0.44690    1.000
    H20      H        0.75010    0.73450    0.40950    1.000
    Eu2      Eu       0.01781    0.44626    0.94509    1.000
    Zn4      Zn       0.76122    0.50914    0.21149    1.000
    Zn5      Zn       0.93654    0.33443    0.67236    1.000
    Zn6      Zn       0.23182    0.34017    0.43124    1.000
    O15      O        0.93410    0.48498    0.03240    1.000
    O16      O        0.86020    0.52008    0.11370    1.000
    O17      O        0.90170    0.41227    0.95320    1.000
    O18      O        0.82200    0.36101    0.98380    1.000
    O19      O        0.03690    0.41286    0.83140    1.000
    O20      O        0.01520    0.35860    0.76200    1.000
    O21      O        0.94050    0.48283    0.85770    1.000
    O22      O        0.82860    0.50502    0.79890    1.000
    O23      O        0.88060    0.29140    0.45300    1.000
    O24      O        0.86800    0.31180    0.57750    1.000
    O25      O        0.01520    0.29110    0.34480    1.000
    O26      O        0.13380    0.32352    0.34820    1.000
    O27      O        0.86910    0.29270    0.25640    1.000
    O28      O        0.81400    0.33646    0.17380    1.000
    N10      N        0.75240    0.46070    0.14420    1.000
    N11      N        0.73700    0.40115    0.09020    1.000
    N12      N        0.87770    0.38599    0.69540    1.000
    N13      N        0.80670    0.44134    0.70900    1.000
    N14      N        0.02790    0.32740    0.59400    1.000
    N15      N        0.13030    0.33270    0.50590    1.000
    N16      N        0.77350    0.28333    0.06640    1.000
    N17      N        0.85090    0.51810    0.29520    1.000
    N18      N        0.15380    0.57590    0.57600    1.000
    C31      C        0.87240    0.48790    0.07670    1.000
    C32      C        0.81270    0.45620    0.08670    1.000
    C33      C        0.80110    0.41900    0.05390    1.000
    C34      C        0.84580    0.39580    0.99360    1.000
    C35      C        0.70950    0.42700    0.14350    1.000
    C36      C        0.63690    0.41880    0.19540    1.000
    H21      H        0.58720    0.42210    0.16560    1.000
    H22      H        0.63700    0.43690    0.23910    1.000
    H23      H        0.63990    0.39220    0.21480    1.000
    C37      C        0.99500    0.39310    0.78370    1.000
    C38      C        0.91710    0.40900    0.75020    1.000
    C39      C        0.87370    0.44280    0.76020    1.000
    C40      C        0.88330    0.47900    0.80910    1.000
    C41      C        0.81100    0.40700    0.67260    1.000
    C42      C        0.74870    0.39100    0.61640    1.000
    H24      H        0.71910    0.36980    0.64110    1.000
    H25      H        0.77580    0.38130    0.57010    1.000
    H26      H        0.71100    0.41160    0.60200    1.000
    C43      C        0.91080    0.30460    0.51560    1.000
    C44      C        0.99900    0.31480    0.52040    1.000
    C45      C        0.06200    0.31810    0.46720    1.000
    C46      C        0.06970    0.31030    0.38180    1.000
    C47      C        0.10800    0.33680    0.58140    1.000
    C48      C        0.16600    0.34890    0.64590    1.000
    H27      H        0.18450    0.32580    0.67360    1.000
    H28      H        0.13830    0.36620    0.68190    1.000
    H29      H        0.21240    0.36230    0.62340    1.000
    C49      C        0.83180    0.30150    0.19270    1.000
    C50      C        0.80780    0.27070    0.13590    1.000
    C51      C        0.92710    0.50100    0.29650    1.000
    H30      H        0.93890    0.48170    0.25920    1.000
    C52      C        0.98670    0.51090    0.35000    1.000
    H31      H        0.03790    0.49870    0.34810    1.000
    C53      C        0.97030    0.53910    0.40680    1.000
    C54      C        0.89090    0.55410    0.40860    1.000
    H32      H        0.87520    0.57110    0.44900    1.000
    C55      C        0.83610    0.54410    0.35150    1.000
    H33      H        0.78500    0.55640    0.35220    1.000
    C56      C        0.16400    0.54480    0.52900    1.000
    H34      H        0.21310    0.53100    0.53350    1.000
    C57      C        0.10820    0.53140    0.47460    1.000
    H35      H        0.12000    0.50920    0.44410    1.000
    C58      C        0.03300    0.55150    0.46520    1.000
    C59      C        0.02110    0.58350    0.51510    1.000
    H36      H        0.97180    0.59720    0.51250    1.000
    C60      C        0.08030    0.59570    0.56860    1.000
    H37      H        0.07020    0.61770    0.60010    1.000
    H38      H        0.71330    0.22340    0.92510    1.000
    H39      H        0.66240    0.26120    0.94690    1.000
    H40      H        0.74990    0.26550    0.90950    1.000
    Eu3      Eu       0.51781    0.05374    0.55491    1.000
    Zn7      Zn       0.26122    0.99086    0.28851    1.000
    Zn8      Zn       0.43654    0.16557    0.82764    1.000
    Zn9      Zn       0.73182    0.15983    0.06876    1.000
    O29      O        0.43410    0.01502    0.46760    1.000
    O30      O        0.36020    0.97992    0.38630    1.000
    O31      O        0.40170    0.08773    0.54680    1.000
    O32      O        0.32200    0.13899    0.51620    1.000
    O33      O        0.53690    0.08714    0.66860    1.000
    O34      O        0.51520    0.14140    0.73800    1.000
    O35      O        0.44050    0.01717    0.64230    1.000
    O36      O        0.32860    0.99498    0.70110    1.000
    O37      O        0.38060    0.20860    0.04700    1.000
    O38      O        0.36800    0.18820    0.92250    1.000
    O39      O        0.51520    0.20890    0.15520    1.000
    O40      O        0.63380    0.17648    0.15180    1.000
    O41      O        0.36910    0.20730    0.24360    1.000
    O42      O        0.31400    0.16354    0.32620    1.000
    N19      N        0.25240    0.03930    0.35580    1.000
    N20      N        0.23700    0.09885    0.40980    1.000
    N21      N        0.37770    0.11401    0.80460    1.000
    N22      N        0.30670    0.05866    0.79100    1.000
    N23      N        0.52790    0.17260    0.90600    1.000
    N24      N        0.63030    0.16730    0.99410    1.000
    N25      N        0.27350    0.21667    0.43360    1.000
    N26      N        0.35090    0.98190    0.20480    1.000
    N27      N        0.65380    0.92410    0.92400    1.000
    C61      C        0.37240    0.01210    0.42330    1.000
    C62      C        0.31270    0.04380    0.41330    1.000
    C63      C        0.30110    0.08100    0.44610    1.000
    C64      C        0.34580    0.10420    0.50640    1.000
    C65      C        0.20950    0.07300    0.35650    1.000
    C66      C        0.13690    0.08120    0.30460    1.000
    H41      H        0.08720    0.07790    0.33440    1.000
    H42      H        0.13700    0.06310    0.26090    1.000
    H43      H        0.13990    0.10780    0.28520    1.000
    C67      C        0.49500    0.10690    0.71630    1.000
    C68      C        0.41710    0.09100    0.74980    1.000
    C69      C        0.37370    0.05720    0.73980    1.000
    C70      C        0.38330    0.02100    0.69090    1.000
    C71      C        0.31100    0.09300    0.82740    1.000
    C72      C        0.24870    0.10900    0.88360    1.000
    H44      H        0.21910    0.13020    0.85890    1.000
    H45      H        0.27580    0.11870    0.92990    1.000
    H46      H        0.21100    0.08840    0.89800    1.000
    C73      C        0.41080    0.19540    0.98440    1.000
    C74      C        0.49900    0.18520    0.97960    1.000
    C75      C        0.56200    0.18190    0.03280    1.000
    C76      C        0.56970    0.18970    0.11820    1.000
    C77      C        0.60800    0.16320    0.91860    1.000
    C78      C        0.66600    0.15110    0.85410    1.000
    H47      H        0.68450    0.17420    0.82640    1.000
    H48      H        0.63830    0.13380    0.81810    1.000
    H49      H        0.71240    0.13770    0.87660    1.000
    C79      C        0.33180    0.19850    0.30730    1.000
    C80      C        0.30780    0.22930    0.36410    1.000
    C81      C        0.42710    0.99900    0.20350    1.000
    H50      H        0.43890    0.01830    0.24080    1.000
    C82      C        0.48670    0.98910    0.15000    1.000
    H51      H        0.53790    0.00130    0.15190    1.000
    C83      C        0.47030    0.96090    0.09320    1.000
    C84      C        0.39090    0.94590    0.09140    1.000
    H52      H        0.37520    0.92890    0.05100    1.000
    C85      C        0.33610    0.95590    0.14850    1.000
    H53      H        0.28500    0.94360    0.14780    1.000
    C86      C        0.66400    0.95520    0.97100    1.000
    H54      H        0.71310    0.96900    0.96650    1.000
    C87      C        0.60820    0.96860    0.02540    1.000
    H55      H        0.62000    0.99080    0.05590    1.000
    C88      C        0.53300    0.94850    0.03480    1.000
    C89      C        0.52110    0.91650    0.98490    1.000
    H56      H        0.47180    0.90280    0.98750    1.000
    C90      C        0.58030    0.90430    0.93140    1.000
    H57      H        0.57020    0.88230    0.89990    1.000
    H58      H        0.21330    0.27660    0.57490    1.000
    H59      H        0.16240    0.23880    0.55310    1.000
    H60      H        0.24990    0.23450    0.59050    1.000
    Eu4      Eu       0.98219    0.94626    0.05491    1.000
    Zn10     Zn       0.23878    0.00914    0.78851    1.000
    Zn11     Zn       0.06346    0.83443    0.32764    1.000
    Zn12     Zn       0.76818    0.84017    0.56876    1.000
    O43      O        0.06590    0.98498    0.96760    1.000
    O44      O        0.13980    0.02008    0.88630    1.000
    O45      O        0.09830    0.91227    0.04680    1.000
    O46      O        0.17800    0.86101    0.01620    1.000
    O47      O        0.96310    0.91286    0.16860    1.000
    O48      O        0.98480    0.85860    0.23800    1.000
    O49      O        0.05950    0.98283    0.14230    1.000
    O50      O        0.17140    0.00502    0.20110    1.000
    O51      O        0.11940    0.79140    0.54700    1.000
    O52      O        0.13200    0.81180    0.42250    1.000
    O53      O        0.98480    0.79110    0.65520    1.000
    O54      O        0.86620    0.82352    0.65180    1.000
    O55      O        0.13090    0.79270    0.74360    1.000
    O56      O        0.18600    0.83646    0.82620    1.000
    N28      N        0.24760    0.96070    0.85580    1.000
    N29      N        0.26300    0.90115    0.90980    1.000
    N30      N        0.12230    0.88599    0.30460    1.000
    N31      N        0.19330    0.94134    0.29100    1.000
    N32      N        0.97210    0.82740    0.40600    1.000
    N33      N        0.86970    0.83270    0.49410    1.000
    N34      N        0.22650    0.78333    0.93360    1.000
    N35      N        0.14910    0.01810    0.70480    1.000
    N36      N        0.84620    0.07590    0.42400    1.000
    C91      C        0.12760    0.98790    0.92330    1.000
    C92      C        0.18730    0.95620    0.91330    1.000
    C93      C        0.19890    0.91900    0.94610    1.000
    C94      C        0.15420    0.89580    0.00640    1.000
    C95      C        0.29050    0.92700    0.85650    1.000
    C96      C        0.36310    0.91880    0.80460    1.000
    H61      H        0.41280    0.92210    0.83440    1.000
    H62      H        0.36300    0.93690    0.76090    1.000
    H63      H        0.36010    0.89220    0.78520    1.000
    C97      C        0.00500    0.89310    0.21630    1.000
    C98      C        0.08290    0.90900    0.24980    1.000
    C99      C        0.12630    0.94280    0.23980    1.000
    C100     C        0.11670    0.97900    0.19090    1.000
    C101     C        0.18900    0.90700    0.32740    1.000
    C102     C        0.25130    0.89100    0.38360    1.000
    H64      H        0.28090    0.86980    0.35890    1.000
    H65      H        0.22420    0.88130    0.42990    1.000
    H66      H        0.28900    0.91160    0.39800    1.000
    C103     C        0.08920    0.80460    0.48440    1.000
    C104     C        0.00100    0.81480    0.47960    1.000
    C105     C        0.93800    0.81810    0.53280    1.000
    C106     C        0.93030    0.81030    0.61820    1.000
    C107     C        0.89200    0.83680    0.41860    1.000
    C108     C        0.83400    0.84890    0.35410    1.000
    H67      H        0.81550    0.82580    0.32640    1.000
    H68      H        0.86170    0.86620    0.31810    1.000
    H69      H        0.78760    0.86230    0.37660    1.000
    C109     C        0.16820    0.80150    0.80730    1.000
    C110     C        0.19220    0.77070    0.86410    1.000
    C111     C        0.07290    0.00100    0.70350    1.000
    H70      H        0.06110    0.98170    0.74080    1.000
    C112     C        0.01330    0.01090    0.65000    1.000
    H71      H        0.96210    0.99870    0.65190    1.000
    C113     C        0.02970    0.03910    0.59320    1.000
    C114     C        0.10910    0.05410    0.59140    1.000
    H72      H        0.12480    0.07110    0.55100    1.000
    C115     C        0.16390    0.04410    0.64850    1.000
    H73      H        0.21500    0.05640    0.64780    1.000
    C116     C        0.83600    0.04480    0.47100    1.000
    H74      H        0.78690    0.03100    0.46650    1.000
    C117     C        0.89180    0.03140    0.52540    1.000
    H75      H        0.88000    0.00920    0.55590    1.000
    C118     C        0.96700    0.05150    0.53480    1.000
    C119     C        0.97890    0.08350    0.48490    1.000
    H76      H        0.02820    0.09720    0.48750    1.000
    C120     C        0.91970    0.09570    0.43140    1.000
    H77      H        0.92980    0.11770    0.39990    1.000
    H78      H        0.28670    0.72340    0.07490    1.000
    H79      H        0.33760    0.76120    0.05310    1.000
    H80      H        0.25010    0.76550    0.09050    1.000
    Eu5      Eu       0.51781    0.44626    0.55491    1.000
    Zn13     Zn       0.26122    0.50914    0.28851    1.000
    Zn14     Zn       0.43654    0.33443    0.82764    1.000
    Zn15     Zn       0.73182    0.34017    0.06876    1.000
    O57      O        0.43410    0.48498    0.46760    1.000
    O58      O        0.36020    0.52008    0.38630    1.000
    O59      O        0.40170    0.41227    0.54680    1.000
    O60      O        0.32200    0.36101    0.51620    1.000
    O61      O        0.53690    0.41286    0.66860    1.000
    O62      O        0.51520    0.35860    0.73800    1.000
    O63      O        0.44050    0.48283    0.64230    1.000
    O64      O        0.32860    0.50502    0.70110    1.000
    O65      O        0.38060    0.29140    0.04700    1.000
    O66      O        0.36800    0.31180    0.92250    1.000
    O67      O        0.51520    0.29110    0.15520    1.000
    O68      O        0.63380    0.32352    0.15180    1.000
    O69      O        0.36910    0.29270    0.24360    1.000
    O70      O        0.31400    0.33646    0.32620    1.000
    N37      N        0.25240    0.46070    0.35580    1.000
    N38      N        0.23700    0.40115    0.40980    1.000
    N39      N        0.37770    0.38599    0.80460    1.000
    N40      N        0.30670    0.44134    0.79100    1.000
    N41      N        0.52790    0.32740    0.90600    1.000
    N42      N        0.63030    0.33270    0.99410    1.000
    N43      N        0.27350    0.28333    0.43360    1.000
    N44      N        0.35090    0.51810    0.20480    1.000
    N45      N        0.65380    0.57590    0.92400    1.000
    C121     C        0.37240    0.48790    0.42330    1.000
    C122     C        0.31270    0.45620    0.41330    1.000
    C123     C        0.30110    0.41900    0.44610    1.000
    C124     C        0.34580    0.39580    0.50640    1.000
    C125     C        0.20950    0.42700    0.35650    1.000
    C126     C        0.13690    0.41880    0.30460    1.000
    H81      H        0.08720    0.42210    0.33440    1.000
    H82      H        0.13700    0.43690    0.26090    1.000
    H83      H        0.13990    0.39220    0.28520    1.000
    C127     C        0.49500    0.39310    0.71630    1.000
    C128     C        0.41710    0.40900    0.74980    1.000
    C129     C        0.37370    0.44280    0.73980    1.000
    C130     C        0.38330    0.47900    0.69090    1.000
    C131     C        0.31100    0.40700    0.82740    1.000
    C132     C        0.24870    0.39100    0.88360    1.000
    H84      H        0.21910    0.36980    0.85890    1.000
    H85      H        0.27580    0.38130    0.92990    1.000
    H86      H        0.21100    0.41160    0.89800    1.000
    C133     C        0.41080    0.30460    0.98440    1.000
    C134     C        0.49900    0.31480    0.97960    1.000
    C135     C        0.56200    0.31810    0.03280    1.000
    C136     C        0.56970    0.31030    0.11820    1.000
    C137     C        0.60800    0.33680    0.91860    1.000
    C138     C        0.66600    0.34890    0.85410    1.000
    H87      H        0.68450    0.32580    0.82640    1.000
    H88      H        0.63830    0.36620    0.81810    1.000
    H89      H        0.71240    0.36230    0.87660    1.000
    C139     C        0.33180    0.30150    0.30730    1.000
    C140     C        0.30780    0.27070    0.36410    1.000
    C141     C        0.42710    0.50100    0.20350    1.000
    H90      H        0.43890    0.48170    0.24080    1.000
    C142     C        0.48670    0.51090    0.15000    1.000
    H91      H        0.53790    0.49870    0.15190    1.000
    C143     C        0.47030    0.53910    0.09320    1.000
    C144     C        0.39090    0.55410    0.09140    1.000
    H92      H        0.37520    0.57110    0.05100    1.000
    C145     C        0.33610    0.54410    0.14850    1.000
    H93      H        0.28500    0.55640    0.14780    1.000
    C146     C        0.66400    0.54480    0.97100    1.000
    H94      H        0.71310    0.53100    0.96650    1.000
    C147     C        0.60820    0.53140    0.02540    1.000
    H95      H        0.62000    0.50920    0.05590    1.000
    C148     C        0.53300    0.55150    0.03480    1.000
    C149     C        0.52110    0.58350    0.98490    1.000
    H96      H        0.47180    0.59720    0.98750    1.000
    C150     C        0.58030    0.59570    0.93140    1.000
    H97      H        0.57020    0.61770    0.89990    1.000
    H98      H        0.21330    0.22340    0.57490    1.000
    H99      H        0.16240    0.26120    0.55310    1.000
    H100     H        0.24990    0.26550    0.59050    1.000
    Eu6      Eu       0.98219    0.55374    0.05491    1.000
    Zn16     Zn       0.23878    0.49086    0.78851    1.000
    Zn17     Zn       0.06346    0.66557    0.32764    1.000
    Zn18     Zn       0.76818    0.65983    0.56876    1.000
    O71      O        0.06590    0.51502    0.96760    1.000
    O72      O        0.13980    0.47992    0.88630    1.000
    O73      O        0.09830    0.58773    0.04680    1.000
    O74      O        0.17800    0.63899    0.01620    1.000
    O75      O        0.96310    0.58714    0.16860    1.000
    O76      O        0.98480    0.64140    0.23800    1.000
    O77      O        0.05950    0.51717    0.14230    1.000
    O78      O        0.17140    0.49498    0.20110    1.000
    O79      O        0.11940    0.70860    0.54700    1.000
    O80      O        0.13200    0.68820    0.42250    1.000
    O81      O        0.98480    0.70890    0.65520    1.000
    O82      O        0.86620    0.67648    0.65180    1.000
    O83      O        0.13090    0.70730    0.74360    1.000
    O84      O        0.18600    0.66354    0.82620    1.000
    N46      N        0.24760    0.53930    0.85580    1.000
    N47      N        0.26300    0.59885    0.90980    1.000
    N48      N        0.12230    0.61401    0.30460    1.000
    N49      N        0.19330    0.55866    0.29100    1.000
    N50      N        0.97210    0.67260    0.40600    1.000
    N51      N        0.86970    0.66730    0.49410    1.000
    N52      N        0.22650    0.71667    0.93360    1.000
    N53      N        0.14910    0.48190    0.70480    1.000
    N54      N        0.84620    0.42410    0.42400    1.000
    C151     C        0.12760    0.51210    0.92330    1.000
    C152     C        0.18730    0.54380    0.91330    1.000
    C153     C        0.19890    0.58100    0.94610    1.000
    C154     C        0.15420    0.60420    0.00640    1.000
    C155     C        0.29050    0.57300    0.85650    1.000
    C156     C        0.36310    0.58120    0.80460    1.000
    H101     H        0.41280    0.57790    0.83440    1.000
    H102     H        0.36300    0.56310    0.76090    1.000
    H103     H        0.36010    0.60780    0.78520    1.000
    C157     C        0.00500    0.60690    0.21630    1.000
    C158     C        0.08290    0.59100    0.24980    1.000
    C159     C        0.12630    0.55720    0.23980    1.000
    C160     C        0.11670    0.52100    0.19090    1.000
    C161     C        0.18900    0.59300    0.32740    1.000
    C162     C        0.25130    0.60900    0.38360    1.000
    H104     H        0.28090    0.63020    0.35890    1.000
    H105     H        0.22420    0.61870    0.42990    1.000
    H106     H        0.28900    0.58840    0.39800    1.000
    C163     C        0.08920    0.69540    0.48440    1.000
    C164     C        0.00100    0.68520    0.47960    1.000
    C165     C        0.93800    0.68190    0.53280    1.000
    C166     C        0.93030    0.68970    0.61820    1.000
    C167     C        0.89200    0.66320    0.41860    1.000
    C168     C        0.83400    0.65110    0.35410    1.000
    H107     H        0.81550    0.67420    0.32640    1.000
    H108     H        0.86170    0.63380    0.31810    1.000
    H109     H        0.78760    0.63770    0.37660    1.000
    C169     C        0.16820    0.69850    0.80730    1.000
    C170     C        0.19220    0.72930    0.86410    1.000
    C171     C        0.07290    0.49900    0.70350    1.000
    H110     H        0.06110    0.51830    0.74080    1.000
    C172     C        0.01330    0.48910    0.65000    1.000
    H111     H        0.96210    0.50130    0.65190    1.000
    C173     C        0.02970    0.46090    0.59320    1.000
    C174     C        0.10910    0.44590    0.59140    1.000
    H112     H        0.12480    0.42890    0.55100    1.000
    C175     C        0.16390    0.45590    0.64850    1.000
    H113     H        0.21500    0.44360    0.64780    1.000
    C176     C        0.83600    0.45520    0.47100    1.000
    H114     H        0.78690    0.46900    0.46650    1.000
    C177     C        0.89180    0.46860    0.52540    1.000
    H115     H        0.88000    0.49080    0.55590    1.000
    C178     C        0.96700    0.44850    0.53480    1.000
    C179     C        0.97890    0.41650    0.48490    1.000
    H116     H        0.02820    0.40280    0.48750    1.000
    C180     C        0.91970    0.40430    0.43140    1.000
    H117     H        0.92980    0.38230    0.39990    1.000
    H118     H        0.28670    0.77660    0.07490    1.000
    H119     H        0.33760    0.73880    0.05310    1.000
    H120     H        0.25010    0.73450    0.09050    1.000
    Eu7      Eu       0.48219    0.94626    0.44509    1.000
    Zn19     Zn       0.73878    0.00914    0.71149    1.000
    Zn20     Zn       0.56346    0.83443    0.17236    1.000
    Zn21     Zn       0.26818    0.84017    0.93124    1.000
    O85      O        0.56590    0.98498    0.53240    1.000
    O86      O        0.63980    0.02008    0.61370    1.000
    O87      O        0.59830    0.91227    0.45320    1.000
    O88      O        0.67800    0.86101    0.48380    1.000
    O89      O        0.46310    0.91286    0.33140    1.000
    O90      O        0.48480    0.85860    0.26200    1.000
    O91      O        0.55950    0.98283    0.35770    1.000
    O92      O        0.67140    0.00502    0.29890    1.000
    O93      O        0.61940    0.79140    0.95300    1.000
    O94      O        0.63200    0.81180    0.07750    1.000
    O95      O        0.48480    0.79110    0.84480    1.000
    O96      O        0.36620    0.82352    0.84820    1.000
    O97      O        0.63090    0.79270    0.75640    1.000
    O98      O        0.68600    0.83646    0.67380    1.000
    N55      N        0.74760    0.96070    0.64420    1.000
    N56      N        0.76300    0.90115    0.59020    1.000
    N57      N        0.62230    0.88599    0.19540    1.000
    N58      N        0.69330    0.94134    0.20900    1.000
    N59      N        0.47210    0.82740    0.09400    1.000
    N60      N        0.36970    0.83270    0.00590    1.000
    N61      N        0.72650    0.78333    0.56640    1.000
    N62      N        0.64910    0.01810    0.79520    1.000
    N63      N        0.34620    0.07590    0.07600    1.000
    C181     C        0.62760    0.98790    0.57670    1.000
    C182     C        0.68730    0.95620    0.58670    1.000
    C183     C        0.69890    0.91900    0.55390    1.000
    C184     C        0.65420    0.89580    0.49360    1.000
    C185     C        0.79050    0.92700    0.64350    1.000
    C186     C        0.86310    0.91880    0.69540    1.000
    H121     H        0.91280    0.92210    0.66560    1.000
    H122     H        0.86300    0.93690    0.73910    1.000
    H123     H        0.86010    0.89220    0.71480    1.000
    C187     C        0.50500    0.89310    0.28370    1.000
    C188     C        0.58290    0.90900    0.25020    1.000
    C189     C        0.62630    0.94280    0.26020    1.000
    C190     C        0.61670    0.97900    0.30910    1.000
    C191     C        0.68900    0.90700    0.17260    1.000
    C192     C        0.75130    0.89100    0.11640    1.000
    H124     H        0.78090    0.86980    0.14110    1.000
    H125     H        0.72420    0.88130    0.07010    1.000
    H126     H        0.78900    0.91160    0.10200    1.000
    C193     C        0.58920    0.80460    0.01560    1.000
    C194     C        0.50100    0.81480    0.02040    1.000
    C195     C        0.43800    0.81810    0.96720    1.000
    C196     C        0.43030    0.81030    0.88180    1.000
    C197     C        0.39200    0.83680    0.08140    1.000
    C198     C        0.33400    0.84890    0.14590    1.000
    H127     H        0.31550    0.82580    0.17360    1.000
    H128     H        0.36170    0.86620    0.18190    1.000
    H129     H        0.28760    0.86230    0.12340    1.000
    C199     C        0.66820    0.80150    0.69270    1.000
    C200     C        0.69220    0.77070    0.63590    1.000
    C201     C        0.57290    0.00100    0.79650    1.000
    H130     H        0.56110    0.98170    0.75920    1.000
    C202     C        0.51330    0.01090    0.85000    1.000
    H131     H        0.46210    0.99870    0.84810    1.000
    C203     C        0.52970    0.03910    0.90680    1.000
    C204     C        0.60910    0.05410    0.90860    1.000
    H132     H        0.62480    0.07110    0.94900    1.000
    C205     C        0.66390    0.04410    0.85150    1.000
    H133     H        0.71500    0.05640    0.85220    1.000
    C206     C        0.33600    0.04480    0.02900    1.000
    H134     H        0.28690    0.03100    0.03350    1.000
    C207     C        0.39180    0.03140    0.97460    1.000
    H135     H        0.38000    0.00920    0.94410    1.000
    C208     C        0.46700    0.05150    0.96520    1.000
    C209     C        0.47890    0.08350    0.01510    1.000
    H136     H        0.52820    0.09720    0.01250    1.000
    C210     C        0.41970    0.09570    0.06860    1.000
    H137     H        0.42980    0.11770    0.10010    1.000
    H138     H        0.78670    0.72340    0.42510    1.000
    H139     H        0.83760    0.76120    0.44690    1.000
    H140     H        0.75010    0.76550    0.40950    1.000
    Eu8      Eu       0.01781    0.05374    0.94509    1.000
    Zn22     Zn       0.76122    0.99086    0.21149    1.000
    Zn23     Zn       0.93654    0.16557    0.67236    1.000
    Zn24     Zn       0.23182    0.15983    0.43124    1.000
    O99      O        0.93410    0.01502    0.03240    1.000
    O100     O        0.86020    0.97992    0.11370    1.000
    O101     O        0.90170    0.08773    0.95320    1.000
    O102     O        0.82200    0.13899    0.98380    1.000
    O103     O        0.03690    0.08714    0.83140    1.000
    O104     O        0.01520    0.14140    0.76200    1.000
    O105     O        0.94050    0.01717    0.85770    1.000
    O106     O        0.82860    0.99498    0.79890    1.000
    O107     O        0.88060    0.20860    0.45300    1.000
    O108     O        0.86800    0.18820    0.57750    1.000
    O109     O        0.01520    0.20890    0.34480    1.000
    O110     O        0.13380    0.17648    0.34820    1.000
    O111     O        0.86910    0.20730    0.25640    1.000
    O112     O        0.81400    0.16354    0.17380    1.000
    N64      N        0.75240    0.03930    0.14420    1.000
    N65      N        0.73700    0.09885    0.09020    1.000
    N66      N        0.87770    0.11401    0.69540    1.000
    N67      N        0.80670    0.05866    0.70900    1.000
    N68      N        0.02790    0.17260    0.59400    1.000
    N69      N        0.13030    0.16730    0.50590    1.000
    N70      N        0.77350    0.21667    0.06640    1.000
    N71      N        0.85090    0.98190    0.29520    1.000
    N72      N        0.15380    0.92410    0.57600    1.000
    C211     C        0.87240    0.01210    0.07670    1.000
    C212     C        0.81270    0.04380    0.08670    1.000
    C213     C        0.80110    0.08100    0.05390    1.000
    C214     C        0.84580    0.10420    0.99360    1.000
    C215     C        0.70950    0.07300    0.14350    1.000
    C216     C        0.63690    0.08120    0.19540    1.000
    H141     H        0.58720    0.07790    0.16560    1.000
    H142     H        0.63700    0.06310    0.23910    1.000
    H143     H        0.63990    0.10780    0.21480    1.000
    C217     C        0.99500    0.10690    0.78370    1.000
    C218     C        0.91710    0.09100    0.75020    1.000
    C219     C        0.87370    0.05720    0.76020    1.000
    C220     C        0.88330    0.02100    0.80910    1.000
    C221     C        0.81100    0.09300    0.67260    1.000
    C222     C        0.74870    0.10900    0.61640    1.000
    H144     H        0.71910    0.13020    0.64110    1.000
    H145     H        0.77580    0.11870    0.57010    1.000
    H146     H        0.71100    0.08840    0.60200    1.000
    C223     C        0.91080    0.19540    0.51560    1.000
    C224     C        0.99900    0.18520    0.52040    1.000
    C225     C        0.06200    0.18190    0.46720    1.000
    C226     C        0.06970    0.18970    0.38180    1.000
    C227     C        0.10800    0.16320    0.58140    1.000
    C228     C        0.16600    0.15110    0.64590    1.000
    H147     H        0.18450    0.17420    0.67360    1.000
    H148     H        0.13830    0.13380    0.68190    1.000
    H149     H        0.21240    0.13770    0.62340    1.000
    C229     C        0.83180    0.19850    0.19270    1.000
    C230     C        0.80780    0.22930    0.13590    1.000
    C231     C        0.92710    0.99900    0.29650    1.000
    H150     H        0.93890    0.01830    0.25920    1.000
    C232     C        0.98670    0.98910    0.35000    1.000
    H151     H        0.03790    0.00130    0.34810    1.000
    C233     C        0.97030    0.96090    0.40680    1.000
    C234     C        0.89090    0.94590    0.40860    1.000
    H152     H        0.87520    0.92890    0.44900    1.000
    C235     C        0.83610    0.95590    0.35150    1.000
    H153     H        0.78500    0.94360    0.35220    1.000
    C236     C        0.16400    0.95520    0.52900    1.000
    H154     H        0.21310    0.96900    0.53350    1.000
    C237     C        0.10820    0.96860    0.47460    1.000
    H155     H        0.12000    0.99080    0.44410    1.000
    C238     C        0.03300    0.94850    0.46520    1.000
    C239     C        0.02110    0.91650    0.51510    1.000
    H156     H        0.97180    0.90280    0.51250    1.000
    C240     C        0.08030    0.90430    0.56860    1.000
    H157     H        0.07020    0.88230    0.60010    1.000
    H158     H        0.71330    0.27660    0.92510    1.000
    H159     H        0.66240    0.23880    0.94690    1.000
    H160     H        0.74990    0.23450    0.90950    1.000
    Eu9      Eu       0.59507    0.75000    0.84996    1.000
    C241     C        0.74540    0.75000    0.52630    1.000
    C242     C        0.78350    0.75000    0.44440    1.000
    Eu10     Eu       0.90493    0.25000    0.34996    1.000
    C243     C        0.75460    0.25000    0.02630    1.000
    C244     C        0.71650    0.25000    0.94440    1.000
    Eu11     Eu       0.40493    0.25000    0.15004    1.000
    C245     C        0.25460    0.25000    0.47370    1.000
    C246     C        0.21650    0.25000    0.55560    1.000
    Eu12     Eu       0.09507    0.75000    0.65004    1.000
    C247     C        0.24540    0.75000    0.97370    1.000
    C248     C        0.28350    0.75000    0.05560    1.000
