# CIF file generated by openbabel 3.1.0, see https://openbabel.org
data_I
_chemical_name_common 'image0'
_cell_length_a 8.2969
_cell_length_b 21.756
_cell_length_c 13.781
_cell_angle_alpha 90
_cell_angle_beta 103.69
_cell_angle_gamma 90
_space_group_name_H-M_alt 'P 1'
_space_group_name_Hall 'P 1'
loop_
    _symmetry_equiv_pos_as_xyz
    x,y,z
loop_
    _atom_site_label
    _atom_site_type_symbol
    _atom_site_fract_x
    _atom_site_fract_y
    _atom_site_fract_z
    _atom_site_occupancy
    C1       C        0.36480    0.10510    0.13710    1.000
    H1       H        0.43040    0.13480    0.11690    1.000
    C2       C        0.24240    0.02060    0.15120    1.000
    H2       H        0.20690    0.98000    0.14180    1.000
    C3       C        0.19730    0.06010    0.21470    1.000
    H3       H        0.12700    0.05210    0.25670    1.000
    C4       C        0.26620    0.17030    0.25950    1.000
    C5       C        0.11880    0.18750    0.28010    1.000
    H4       H        0.02380    0.16420    0.25590    1.000
    C6       C        0.40610    0.20570    0.29300    1.000
    H5       H        0.50600    0.19390    0.27910    1.000
    C7       C        0.26840    0.00630    0.76350    1.000
    H6       H        0.33120    0.97470    0.74570    1.000
    C8       C        0.18070    0.07530    0.84760    1.000
    H7       H        0.17060    0.10080    0.90000    1.000
    C9       C        0.08080    0.07700    0.75390    1.000
    H8       H        0.99190    0.10340    0.73080    1.000
    C10      C        0.06750    0.01560    0.59860    1.000
    C11      C        0.98250    0.05890    0.53310    1.000
    H9       H        0.97050    0.09870    0.55520    1.000
    C12      C        0.08550    0.95680    0.56600    1.000
    H10      H        0.14310    0.92760    0.61020    1.000
    C13      C        0.11810    0.36650    0.42470    1.000
    H11      H        0.01700    0.36260    0.37840    1.000
    C14      C        0.31220    0.39950    0.54200    1.000
    H12      H        0.37160    0.42370    0.59400    1.000
    C15      C        0.37270    0.34870    0.50670    1.000
    H13      H        0.47780    0.33170    0.52870    1.000
    C16      C        0.25100    0.27450    0.37020    1.000
    C17      C        0.11080    0.23970    0.33700    1.000
    H14      H        0.01160    0.25090    0.35250    1.000
    C18      C        0.39870    0.25850    0.34720    1.000
    H15      H        0.49220    0.28310    0.36810    1.000
    N1       N        0.34850    0.04857    0.10180    1.000
    N2       N        0.27620    0.11490    0.20530    1.000
    N3       N        0.29780    0.03078    0.85330    1.000
    N4       N        0.13690    0.03217    0.70030    1.000
    N5       N        0.15220    0.41078    0.49120    1.000
    N6       N        0.24540    0.32770    0.43110    1.000
    C19      C        0.13520    0.60510    0.36290    1.000
    H16      H        0.06960    0.63480    0.38310    1.000
    C20      C        0.25760    0.52060    0.34880    1.000
    H17      H        0.29310    0.48000    0.35820    1.000
    C21      C        0.30270    0.56010    0.28530    1.000
    H18      H        0.37300    0.55210    0.24330    1.000
    C22      C        0.23380    0.67030    0.24050    1.000
    C23      C        0.38120    0.68750    0.21990    1.000
    H19      H        0.47620    0.66420    0.24410    1.000
    C24      C        0.09390    0.70570    0.20700    1.000
    H20      H        0.99400    0.69390    0.22090    1.000
    C25      C        0.23160    0.50630    0.73650    1.000
    H21      H        0.16880    0.47470    0.75430    1.000
    C26      C        0.31930    0.57530    0.65240    1.000
    H22      H        0.32940    0.60080    0.60000    1.000
    C27      C        0.41920    0.57700    0.74610    1.000
    H23      H        0.50810    0.60340    0.76920    1.000
    C28      C        0.43250    0.51560    0.90140    1.000
    C29      C        0.51750    0.55890    0.96690    1.000
    H24      H        0.52950    0.59870    0.94480    1.000
    C30      C        0.41450    0.45680    0.93400    1.000
    H25      H        0.35690    0.42760    0.88980    1.000
    C31      C        0.38190    0.86650    0.07530    1.000
    H26      H        0.48300    0.86260    0.12160    1.000
    C32      C        0.18780    0.89950    0.95800    1.000
    H27      H        0.12840    0.92370    0.90600    1.000
    C33      C        0.12730    0.84870    0.99330    1.000
    H28      H        0.02220    0.83170    0.97130    1.000
    C34      C        0.24900    0.77450    0.12980    1.000
    C35      C        0.38920    0.73970    0.16300    1.000
    H29      H        0.48840    0.75090    0.14750    1.000
    C36      C        0.10130    0.75850    0.15280    1.000
    H30      H        0.00780    0.78310    0.13190    1.000
    N7       N        0.15150    0.54857    0.39820    1.000
    N8       N        0.22380    0.61490    0.29470    1.000
    N9       N        0.20220    0.53078    0.64670    1.000
    N10      N        0.36310    0.53217    0.79970    1.000
    N11      N        0.34780    0.91078    0.00880    1.000
    N12      N        0.25460    0.82770    0.06890    1.000
    C37      C        0.63520    0.89490    0.86290    1.000
    H31      H        0.56960    0.86520    0.88310    1.000
    C38      C        0.75760    0.97940    0.84880    1.000
    H32      H        0.79310    0.02000    0.85820    1.000
    C39      C        0.80270    0.93990    0.78530    1.000
    H33      H        0.87300    0.94790    0.74330    1.000
    C40      C        0.73380    0.82970    0.74050    1.000
    C41      C        0.88120    0.81250    0.71990    1.000
    H34      H        0.97620    0.83580    0.74410    1.000
    C42      C        0.59390    0.79430    0.70700    1.000
    H35      H        0.49400    0.80610    0.72090    1.000
    C43      C        0.73160    0.99370    0.23650    1.000
    H36      H        0.66880    0.02530    0.25430    1.000
    C44      C        0.81930    0.92470    0.15240    1.000
    H37      H        0.82940    0.89920    0.10000    1.000
    C45      C        0.91920    0.92300    0.24610    1.000
    H38      H        0.00810    0.89660    0.26920    1.000
    C46      C        0.93250    0.98440    0.40140    1.000
    C47      C        0.01750    0.94110    0.46690    1.000
    H39      H        0.02950    0.90130    0.44480    1.000
    C48      C        0.91450    0.04320    0.43400    1.000
    H40      H        0.85690    0.07240    0.38980    1.000
    C49      C        0.88190    0.63350    0.57530    1.000
    H41      H        0.98300    0.63740    0.62160    1.000
    C50      C        0.68780    0.60050    0.45800    1.000
    H42      H        0.62840    0.57630    0.40600    1.000
    C51      C        0.62730    0.65130    0.49330    1.000
    H43      H        0.52220    0.66830    0.47130    1.000
    C52      C        0.74900    0.72550    0.62980    1.000
    C53      C        0.88920    0.76030    0.66300    1.000
    H44      H        0.98840    0.74910    0.64750    1.000
    C54      C        0.60130    0.74150    0.65280    1.000
    H45      H        0.50780    0.71690    0.63190    1.000
    N13      N        0.65150    0.95143    0.89820    1.000
    N14      N        0.72380    0.88510    0.79470    1.000
    N15      N        0.70220    0.96922    0.14670    1.000
    N16      N        0.86310    0.96783    0.29970    1.000
    N17      N        0.84780    0.58922    0.50880    1.000
    N18      N        0.75460    0.67230    0.56890    1.000
    C55      C        0.86480    0.39490    0.63710    1.000
    H46      H        0.93040    0.36520    0.61690    1.000
    C56      C        0.74240    0.47940    0.65120    1.000
    H47      H        0.70690    0.52000    0.64180    1.000
    C57      C        0.69730    0.43990    0.71470    1.000
    H48      H        0.62700    0.44790    0.75670    1.000
    C58      C        0.76620    0.32970    0.75950    1.000
    C59      C        0.61880    0.31250    0.78010    1.000
    H49      H        0.52380    0.33580    0.75590    1.000
    C60      C        0.90610    0.29430    0.79300    1.000
    H50      H        0.00600    0.30610    0.77910    1.000
    C61      C        0.76840    0.49370    0.26350    1.000
    H51      H        0.83120    0.52530    0.24570    1.000
    C62      C        0.68070    0.42470    0.34760    1.000
    H52      H        0.67060    0.39920    0.40000    1.000
    C63      C        0.58080    0.42300    0.25390    1.000
    H53      H        0.49190    0.39660    0.23080    1.000
    C64      C        0.56750    0.48440    0.09860    1.000
    C65      C        0.48250    0.44110    0.03310    1.000
    H54      H        0.47050    0.40130    0.05520    1.000
    C66      C        0.58550    0.54320    0.06600    1.000
    H55      H        0.64310    0.57240    0.11020    1.000
    C67      C        0.61810    0.13350    0.92470    1.000
    H56      H        0.51700    0.13740    0.87840    1.000
    C68      C        0.81220    0.10050    0.04200    1.000
    H57      H        0.87160    0.07630    0.09400    1.000
    C69      C        0.87270    0.15130    0.00670    1.000
    H58      H        0.97780    0.16830    0.02870    1.000
    C70      C        0.75100    0.22550    0.87020    1.000
    C71      C        0.61080    0.26030    0.83700    1.000
    H59      H        0.51160    0.24910    0.85250    1.000
    C72      C        0.89870    0.24150    0.84720    1.000
    H60      H        0.99220    0.21690    0.86810    1.000
    N19      N        0.84850    0.45143    0.60180    1.000
    N20      N        0.77620    0.38510    0.70530    1.000
    N21      N        0.79780    0.46922    0.35330    1.000
    N22      N        0.63690    0.46783    0.20030    1.000
    N23      N        0.65220    0.08922    0.99120    1.000
    N24      N        0.74540    0.17230    0.93110    1.000
    Cd1      Cd       0.50000    0.00000    0.00000    1.000
    Cd2      Cd       0.00000    0.50000    0.50000    1.000
