# CIF file generated by openbabel 3.1.0, see https://openbabel.org
data_I
_chemical_name_common 'VILXOE_clean'
_cell_length_a 7.7808
_cell_length_b 10.8529
_cell_length_c 15.2752
_cell_angle_alpha 90
_cell_angle_beta 90
_cell_angle_gamma 90
_space_group_name_H-M_alt 'P 1'
_space_group_name_Hall 'P 1'
loop_
    _symmetry_equiv_pos_as_xyz
    x,y,z
loop_
    _atom_site_label
    _atom_site_type_symbol
    _atom_site_fract_x
    _atom_site_fract_y
    _atom_site_fract_z
    _atom_site_occupancy
    Mn1      Mn       0.98408    0.29866    0.70584    1.000
    Mn2      Mn       0.01592    0.79866    0.29416    1.000
    Mn3      Mn       0.48408    0.29866    0.79416    1.000
    Mn4      Mn       0.51592    0.79866    0.20584    1.000
    H1       H        0.89000    0.90130    0.57330    1.000
    H2       H        0.85980    0.97730    0.65310    1.000
    H3       H        0.20110    0.02390    0.50610    1.000
    H4       H        0.58110    0.07120    0.68140    1.000
    H5       H        0.66420    0.86830    0.46600    1.000
    H6       H        0.11000    0.40130    0.42670    1.000
    H7       H        0.14020    0.47730    0.34690    1.000
    H8       H        0.79890    0.52390    0.49390    1.000
    H9       H        0.41890    0.57120    0.31860    1.000
    H10      H        0.33580    0.36830    0.53400    1.000
    H11      H        0.39000    0.90130    0.92670    1.000
    H12      H        0.35980    0.97730    0.84690    1.000
    H13      H        0.70110    0.02390    0.99390    1.000
    H14      H        0.08110    0.07120    0.81860    1.000
    H15      H        0.16420    0.86830    0.03400    1.000
    H16      H        0.61000    0.40130    0.07330    1.000
    H17      H        0.64020    0.47730    0.15310    1.000
    H18      H        0.29890    0.52390    0.00610    1.000
    H19      H        0.91890    0.57120    0.18140    1.000
    H20      H        0.83580    0.36830    0.96600    1.000
    C1       C        0.42270    0.93620    0.47418    1.000
    C2       C        0.31340    0.00934    0.52426    1.000
    C3       C        0.37440    0.06051    0.60210    1.000
    C4       C        0.54220    0.03800    0.62888    1.000
    C5       C        0.65280    0.96666    0.57827    1.000
    C6       C        0.59170    0.91599    0.50059    1.000
    C7       C        0.36160    0.88182    0.38892    1.000
    C8       C        0.25980    0.13999    0.65698    1.000
    C9       C        0.57730    0.43620    0.52582    1.000
    C10      C        0.68660    0.50934    0.47574    1.000
    C11      C        0.62560    0.56051    0.39790    1.000
    C12      C        0.45780    0.53800    0.37112    1.000
    C13      C        0.34720    0.46666    0.42173    1.000
    C14      C        0.40830    0.41599    0.49941    1.000
    C15      C        0.63840    0.38182    0.61108    1.000
    C16      C        0.74020    0.63999    0.34302    1.000
    C17      C        0.92270    0.93620    0.02582    1.000
    C18      C        0.81340    0.00934    0.97574    1.000
    C19      C        0.87440    0.06051    0.89790    1.000
    C20      C        0.04220    0.03800    0.87112    1.000
    C21      C        0.15280    0.96666    0.92173    1.000
    C22      C        0.09170    0.91599    0.99941    1.000
    C23      C        0.86160    0.88182    0.11108    1.000
    C24      C        0.75980    0.13999    0.84302    1.000
    C25      C        0.07730    0.43620    0.97418    1.000
    C26      C        0.18660    0.50934    0.02426    1.000
    C27      C        0.12560    0.56051    0.10210    1.000
    C28      C        0.95780    0.53800    0.12888    1.000
    C29      C        0.84720    0.46666    0.07827    1.000
    C30      C        0.90830    0.41599    0.00059    1.000
    C31      C        0.13840    0.38182    0.88892    1.000
    C32      C        0.24020    0.63999    0.15698    1.000
    N1       N        0.82280    0.94570    0.60502    1.000
    N2       N        0.17720    0.44570    0.39498    1.000
    N3       N        0.32280    0.94570    0.89498    1.000
    N4       N        0.67720    0.44570    0.10502    1.000
    O1       O        0.11580    0.17080    0.62725    1.000
    O2       O        0.30960    0.17178    0.73302    1.000
    O3       O        0.47440    0.86179    0.33218    1.000
    O4       O        0.20454    0.86248    0.38030    1.000
    O5       O        0.88420    0.67080    0.37275    1.000
    O6       O        0.69040    0.67178    0.26698    1.000
    O7       O        0.52560    0.36179    0.66782    1.000
    O8       O        0.79546    0.36248    0.61970    1.000
    O9       O        0.61580    0.17080    0.87275    1.000
    O10      O        0.80960    0.17178    0.76698    1.000
    O11      O        0.97440    0.86179    0.16782    1.000
    O12      O        0.70454    0.86248    0.11970    1.000
    O13      O        0.38420    0.67080    0.12725    1.000
    O14      O        0.19040    0.67178    0.23302    1.000
    O15      O        0.02560    0.36179    0.83218    1.000
    O16      O        0.29546    0.36248    0.88030    1.000
