# CIF file generated by openbabel 3.1.0, see https://openbabel.org
data_I
_chemical_name_common 'image0'
_cell_length_a 26.604
_cell_length_b 18.113
_cell_length_c 18.925
_cell_angle_alpha 90
_cell_angle_beta 118.24
_cell_angle_gamma 90
_space_group_name_H-M_alt 'P 1'
_space_group_name_Hall 'P 1'
loop_
    _symmetry_equiv_pos_as_xyz
    x,y,z
loop_
    _atom_site_label
    _atom_site_type_symbol
    _atom_site_fract_x
    _atom_site_fract_y
    _atom_site_fract_z
    _atom_site_occupancy
    Co1      Co       0.99648    0.08090    0.77893    1.000
    B1       B        0.02760    0.95130    0.68930    1.000
    H1       H        0.03880    0.91260    0.66170    1.000
    N1       N        0.05540    0.99310    0.83490    1.000
    N2       N        0.06130    0.94280    0.78190    1.000
    C1       C        0.09090    0.96520    0.90390    1.000
    H2       H        0.09980    0.99110    0.95210    1.000
    C2       C        0.09840    0.88840    0.82680    1.000
    H3       H        0.11100    0.84880    0.80630    1.000
    N3       N        0.11440    0.90050    0.90640    1.000
    N4       N        0.94220    0.99420    0.69880    1.000
    N5       N        0.96690    0.94650    0.66610    1.000
    C3       C        0.88940    0.97370    0.66370    1.000
    H4       H        0.86160    0.00000    0.67160    1.000
    C4       C        0.92550    0.90070    0.61700    1.000
    H5       H        0.93110    0.86310    0.58650    1.000
    N6       N        0.87480    0.91350    0.61530    1.000
    N7       N        0.02990    0.08830    0.70050    1.000
    N8       N        0.04040    0.02850    0.67010    1.000
    C5       C        0.04270    0.14520    0.66470    1.000
    H6       H        0.03800    0.19540    0.67500    1.000
    C6       C        0.05680    0.05230    0.61340    1.000
    H7       H        0.06340    0.02040    0.57870    1.000
    N9       N        0.06200    0.12560    0.61460    1.000
    B2       B        0.96130    0.21300    0.85730    1.000
    H8       H        0.94910    0.25400    0.88110    1.000
    N10      N        0.93620    0.16540    0.71870    1.000
    N11      N        0.93000    0.21850    0.76570    1.000
    C7       C        0.90510    0.19040    0.64390    1.000
    H9       H        0.89940    0.16330    0.59770    1.000
    C8       C        0.89760    0.27400    0.71760    1.000
    H10      H        0.88730    0.31750    0.73560    1.000
    N12      N        0.88220    0.25810    0.64050    1.000
    N13      N        0.05070    0.16780    0.85650    1.000
    N14      N        0.02540    0.21850    0.88520    1.000
    C9       C        0.10160    0.19370    0.88310    1.000
    H11      H        0.12990    0.16670    0.87700    1.000
    C10      C        0.06420    0.27250    0.92280    1.000
    H12      H        0.05830    0.31420    0.94820    1.000
    N15      N        0.11330    0.25820    0.91880    1.000
    N16      N        0.96170    0.07720    0.85630    1.000
    N17      N        0.94860    0.13870    0.88300    1.000
    C11      C        0.94610    0.02190    0.88820    1.000
    H13      H        0.95020    0.97110    0.87940    1.000
    C12      C        0.92440    0.11990    0.93080    1.000
    H14      H        0.91070    0.15360    0.95620    1.000
    N18      N        0.92350    0.04720    0.93530    1.000
    Cu1      Cu       0.19695    0.85002    0.97582    1.000
    Cu2      Cu       0.30583    0.81547    0.03345    1.000
    O1       O        0.21710    0.89230    0.89380    1.000
    O2       O        0.30950    0.87700    0.95120    1.000
    C13      C        0.26570    0.89930    0.89810    1.000
    C14      C        0.26310    0.94160    0.82740    1.000
    C15      C        0.21640    0.99800    0.79190    1.000
    C16      C        0.31570    0.97850    0.85330    1.000
    C17      C        0.25390    0.89410    0.75580    1.000
    C18      C        0.27190    0.82460    0.76770    1.000
    O3       O        0.23080    0.93600    0.04590    1.000
    O4       O        0.32050    0.90410    0.09940    1.000
    C19      C        0.28190    0.94810    0.08980    1.000
    C20      C        0.29490    0.01800    0.13690    1.000
    H15      H        0.33210    0.01160    0.18680    1.000
    C21      C        0.24950    0.04520    0.16150    1.000
    H16      H        0.21170    0.02360    0.12570    1.000
    H17      H        0.26070    0.03050    0.21740    1.000
    C22      C        0.30050    0.08190    0.09030    1.000
    C23      C        0.25260    0.08150    0.00090    1.000
    H18      H        0.21530    0.07710    0.99900    1.000
    H19      H        0.25840    0.03950    0.97290    1.000
    H20      H        0.25420    0.12750    0.97490    1.000
    C24      C        0.36100    0.08380    0.09250    1.000
    H21      H        0.36350    0.04310    0.06010    1.000
    H22      H        0.39130    0.07850    0.14800    1.000
    H23      H        0.36560    0.13090    0.07080    1.000
    O5       O        0.80160    0.79760    0.93270    1.000
    O6       O        0.71050    0.76340    0.88920    1.000
    C25      C        0.75530    0.76510    0.88450    1.000
    C26      C        0.75910    0.72580    0.81360    1.000
    C27      C        0.81710    0.69660    0.83190    1.000
    H24      H        0.82400    0.64650    0.85550    1.000
    H25      H        0.84820    0.73010    0.86740    1.000
    C28      C        0.73270    0.77820    0.73610    1.000
    C29      C        0.75140    0.85140    0.74940    1.000
    C30      C        0.66850    0.78740    0.69690    1.000
    O7       O        0.32280    0.25750    0.08490    1.000
    O8       O        0.23020    0.23830    0.04660    1.000
    C31      C        0.28290    0.22420    0.08740    1.000
    C32      C        0.30050    0.15240    0.13870    1.000
    C33      C        0.34890    0.16780    0.21430    1.000
    H26      H        0.37900    0.19030    0.20560    1.000
    H27      H        0.36310    0.12170    0.24450    1.000
    H28      H        0.33790    0.20180    0.24480    1.000
    C34      C        0.24750    0.12560    0.15420    1.000
    H29      H        0.25100    0.14840    0.20390    1.000
    H30      H        0.21060    0.14110    0.10880    1.000
    Cu3      Cu       0.79717    0.86262    0.53850    1.000
    Cu4      Cu       0.69168    0.81690    0.44980    1.000
    O9       O        0.76010    0.94080    0.56160    1.000
    O10      O        0.66820    0.91090    0.47610    1.000
    C35      C        0.70630    0.95530    0.52690    1.000
    C36      C        0.68310    0.02670    0.55030    1.000
    C37      C        0.73190    0.05870    0.63340    1.000
    H31      H        0.73190    0.03310    0.67960    1.000
    H32      H        0.77000    0.05370    0.63690    1.000
    C38      C        0.62790    0.01010    0.54670    1.000
    H33      H        0.59770    0.01130    0.49080    1.000
    H34      H        0.61970    0.04710    0.57780    1.000
    H35      H        0.62930    0.96100    0.56920    1.000
    C39      C        0.67860    0.09120    0.49560    1.000
    C40      C        0.72870    0.09300    0.47470    1.000
    H36      H        0.76300    0.07220    0.51940    1.000
    H37      H        0.73610    0.14420    0.46550    1.000
    H38      H        0.71840    0.06390    0.42620    1.000
    C41      C        0.62470    0.09930    0.42530    1.000
    H39      H        0.62240    0.14830    0.40200    1.000
    H40      H        0.59400    0.09400    0.43960    1.000
    H41      H        0.62070    0.06130    0.38620    1.000
    O11      O        0.78900    0.79990    0.61920    1.000
    O12      O        0.69630    0.77370    0.54550    1.000
    C42      C        0.74250    0.76970    0.60860    1.000
    C43      C        0.74550    0.72850    0.68100    1.000
    C44      C        0.80810    0.69630    0.74200    1.000
    H42      H        0.81180    0.64520    0.72630    1.000
    H43      H        0.83790    0.72700    0.73910    1.000
    C45      C        0.70190    0.67390    0.65830    1.000
    H44      H        0.68760    0.67310    0.69750    1.000
    H45      H        0.71760    0.62540    0.65670    1.000
    H46      H        0.67050    0.68580    0.60510    1.000
    O13      O        0.67110    0.27600    0.48780    1.000
    O14      O        0.75930    0.23430    0.55800    1.000
    C46      C        0.70540    0.22800    0.52940    1.000
    C47      C        0.68470    0.15910    0.54800    1.000
    H47      H        0.64540    0.17010    0.53950    1.000
    C48      C        0.71680    0.13250    0.63090    1.000
    H48      H        0.75170    0.16260    0.66000    1.000
    H49      H        0.69320    0.13840    0.65820    1.000
    O15      O        0.21500    0.91230    0.56240    1.000
    O16      O        0.30380    0.86830    0.63750    1.000
    C49      C        0.25930    0.90530    0.62610    1.000
    C50      C        0.26540    0.94450    0.70080    1.000
    H50      H        0.23690    0.98560    0.68330    1.000
    C51      C        0.32750    0.97970    0.74890    1.000
    Co2      Co       0.49648    0.58090    0.77893    1.000
    B3       B        0.52760    0.45130    0.68930    1.000
    H51      H        0.53880    0.41260    0.66170    1.000
    N19      N        0.55540    0.49310    0.83490    1.000
    N20      N        0.56130    0.44280    0.78190    1.000
    C52      C        0.59090    0.46520    0.90390    1.000
    H52      H        0.59980    0.49110    0.95210    1.000
    C53      C        0.59840    0.38840    0.82680    1.000
    H53      H        0.61100    0.34880    0.80630    1.000
    N21      N        0.61440    0.40050    0.90640    1.000
    N22      N        0.44220    0.49420    0.69880    1.000
    N23      N        0.46690    0.44650    0.66610    1.000
    C54      C        0.38940    0.47370    0.66370    1.000
    H54      H        0.36160    0.50000    0.67160    1.000
    C55      C        0.42550    0.40070    0.61700    1.000
    H55      H        0.43110    0.36310    0.58650    1.000
    N24      N        0.37480    0.41350    0.61530    1.000
    N25      N        0.52990    0.58830    0.70050    1.000
    N26      N        0.54040    0.52850    0.67010    1.000
    C56      C        0.54270    0.64520    0.66470    1.000
    H56      H        0.53800    0.69540    0.67500    1.000
    C57      C        0.55680    0.55230    0.61340    1.000
    H57      H        0.56340    0.52040    0.57870    1.000
    N27      N        0.56200    0.62560    0.61460    1.000
    B4       B        0.46130    0.71300    0.85730    1.000
    H58      H        0.44910    0.75400    0.88110    1.000
    N28      N        0.43620    0.66540    0.71870    1.000
    N29      N        0.43000    0.71850    0.76570    1.000
    C58      C        0.40510    0.69040    0.64390    1.000
    H59      H        0.39940    0.66330    0.59770    1.000
    C59      C        0.39760    0.77400    0.71760    1.000
    H60      H        0.38730    0.81750    0.73560    1.000
    N30      N        0.38220    0.75810    0.64050    1.000
    N31      N        0.55070    0.66780    0.85650    1.000
    N32      N        0.52540    0.71850    0.88520    1.000
    C60      C        0.60160    0.69370    0.88310    1.000
    H61      H        0.62990    0.66670    0.87700    1.000
    C61      C        0.56420    0.77250    0.92280    1.000
    H62      H        0.55830    0.81420    0.94820    1.000
    N33      N        0.61330    0.75820    0.91880    1.000
    N34      N        0.46170    0.57720    0.85630    1.000
    N35      N        0.44860    0.63870    0.88300    1.000
    C62      C        0.44610    0.52190    0.88820    1.000
    H63      H        0.45020    0.47110    0.87940    1.000
    C63      C        0.42440    0.61990    0.93080    1.000
    H64      H        0.41070    0.65360    0.95620    1.000
    N36      N        0.42350    0.54720    0.93530    1.000
    Cu5      Cu       0.69695    0.35002    0.97582    1.000
    Cu6      Cu       0.80583    0.31547    0.03345    1.000
    O17      O        0.71710    0.39230    0.89380    1.000
    O18      O        0.80950    0.37700    0.95120    1.000
    C64      C        0.76570    0.39930    0.89810    1.000
    C65      C        0.76310    0.44160    0.82740    1.000
    C66      C        0.71640    0.49800    0.79190    1.000
    C67      C        0.81570    0.47850    0.85330    1.000
    C68      C        0.75390    0.39410    0.75580    1.000
    C69      C        0.77190    0.32460    0.76770    1.000
    O19      O        0.73080    0.43600    0.04590    1.000
    O20      O        0.82050    0.40410    0.09940    1.000
    C70      C        0.78190    0.44810    0.08980    1.000
    C71      C        0.79490    0.51800    0.13690    1.000
    H65      H        0.83210    0.51160    0.18680    1.000
    C72      C        0.74950    0.54520    0.16150    1.000
    H66      H        0.71170    0.52360    0.12570    1.000
    H67      H        0.76070    0.53050    0.21740    1.000
    C73      C        0.80050    0.58190    0.09030    1.000
    C74      C        0.75260    0.58150    0.00090    1.000
    H68      H        0.71530    0.57710    0.99900    1.000
    H69      H        0.75840    0.53950    0.97290    1.000
    H70      H        0.75420    0.62750    0.97490    1.000
    C75      C        0.86100    0.58380    0.09250    1.000
    H71      H        0.86350    0.54310    0.06010    1.000
    H72      H        0.89130    0.57850    0.14800    1.000
    H73      H        0.86560    0.63090    0.07080    1.000
    O21      O        0.30160    0.29760    0.93270    1.000
    O22      O        0.21050    0.26340    0.88920    1.000
    C76      C        0.25530    0.26510    0.88450    1.000
    C77      C        0.25910    0.22580    0.81360    1.000
    C78      C        0.31710    0.19660    0.83190    1.000
    H74      H        0.32400    0.14650    0.85550    1.000
    H75      H        0.34820    0.23010    0.86740    1.000
    C79      C        0.23270    0.27820    0.73610    1.000
    C80      C        0.25140    0.35140    0.74940    1.000
    C81      C        0.16850    0.28740    0.69690    1.000
    O23      O        0.82280    0.75750    0.08490    1.000
    O24      O        0.73020    0.73830    0.04660    1.000
    C82      C        0.78290    0.72420    0.08740    1.000
    C83      C        0.80050    0.65240    0.13870    1.000
    C84      C        0.84890    0.66780    0.21430    1.000
    H76      H        0.87900    0.69030    0.20560    1.000
    H77      H        0.86310    0.62170    0.24450    1.000
    H78      H        0.83790    0.70180    0.24480    1.000
    C85      C        0.74750    0.62560    0.15420    1.000
    H79      H        0.75100    0.64840    0.20390    1.000
    H80      H        0.71060    0.64110    0.10880    1.000
    Cu7      Cu       0.29717    0.36262    0.53850    1.000
    Cu8      Cu       0.19168    0.31690    0.44980    1.000
    O25      O        0.26010    0.44080    0.56160    1.000
    O26      O        0.16820    0.41090    0.47610    1.000
    C86      C        0.20630    0.45530    0.52690    1.000
    C87      C        0.18310    0.52670    0.55030    1.000
    C88      C        0.23190    0.55870    0.63340    1.000
    H81      H        0.23190    0.53310    0.67960    1.000
    H82      H        0.27000    0.55370    0.63690    1.000
    C89      C        0.12790    0.51010    0.54670    1.000
    H83      H        0.09770    0.51130    0.49080    1.000
    H84      H        0.11970    0.54710    0.57780    1.000
    H85      H        0.12930    0.46100    0.56920    1.000
    C90      C        0.17860    0.59120    0.49560    1.000
    C91      C        0.22870    0.59300    0.47470    1.000
    H86      H        0.26300    0.57220    0.51940    1.000
    H87      H        0.23610    0.64420    0.46550    1.000
    H88      H        0.21840    0.56390    0.42620    1.000
    C92      C        0.12470    0.59930    0.42530    1.000
    H89      H        0.12240    0.64830    0.40200    1.000
    H90      H        0.09400    0.59400    0.43960    1.000
    H91      H        0.12070    0.56130    0.38620    1.000
    O27      O        0.28900    0.29990    0.61920    1.000
    O28      O        0.19630    0.27370    0.54550    1.000
    C93      C        0.24250    0.26970    0.60860    1.000
    C94      C        0.24550    0.22850    0.68100    1.000
    C95      C        0.30810    0.19630    0.74200    1.000
    H92      H        0.31180    0.14520    0.72630    1.000
    H93      H        0.33790    0.22700    0.73910    1.000
    C96      C        0.20190    0.17390    0.65830    1.000
    H94      H        0.18760    0.17310    0.69750    1.000
    H95      H        0.21760    0.12540    0.65670    1.000
    H96      H        0.17050    0.18580    0.60510    1.000
    O29      O        0.17110    0.77600    0.48780    1.000
    O30      O        0.25930    0.73430    0.55800    1.000
    C97      C        0.20540    0.72800    0.52940    1.000
    C98      C        0.18470    0.65910    0.54800    1.000
    H97      H        0.14540    0.67010    0.53950    1.000
    C99      C        0.21680    0.63250    0.63090    1.000
    H98      H        0.25170    0.66260    0.66000    1.000
    H99      H        0.19320    0.63840    0.65820    1.000
    O31      O        0.71500    0.41230    0.56240    1.000
    O32      O        0.80380    0.36830    0.63750    1.000
    C100     C        0.75930    0.40530    0.62610    1.000
    C101     C        0.76540    0.44450    0.70080    1.000
    H100     H        0.73690    0.48560    0.68330    1.000
    C102     C        0.82750    0.47970    0.74890    1.000
    Co3      Co       0.00352    0.08090    0.22107    1.000
    B5       B        0.97240    0.95130    0.31070    1.000
    H101     H        0.96120    0.91260    0.33830    1.000
    N37      N        0.94460    0.99310    0.16510    1.000
    N38      N        0.93870    0.94280    0.21810    1.000
    C103     C        0.90910    0.96520    0.09610    1.000
    H102     H        0.90020    0.99110    0.04790    1.000
    C104     C        0.90160    0.88840    0.17320    1.000
    H103     H        0.88900    0.84880    0.19370    1.000
    N39      N        0.88560    0.90050    0.09360    1.000
    N40      N        0.05780    0.99420    0.30120    1.000
    N41      N        0.03310    0.94650    0.33390    1.000
    C105     C        0.11060    0.97370    0.33630    1.000
    H104     H        0.13840    0.00000    0.32840    1.000
    C106     C        0.07450    0.90070    0.38300    1.000
    H105     H        0.06890    0.86310    0.41350    1.000
    N42      N        0.12520    0.91350    0.38470    1.000
    N43      N        0.97010    0.08830    0.29950    1.000
    N44      N        0.95960    0.02850    0.32990    1.000
    C107     C        0.95730    0.14520    0.33530    1.000
    H106     H        0.96200    0.19540    0.32500    1.000
    C108     C        0.94320    0.05230    0.38660    1.000
    H107     H        0.93660    0.02040    0.42130    1.000
    N45      N        0.93800    0.12560    0.38540    1.000
    B6       B        0.03870    0.21300    0.14270    1.000
    H108     H        0.05090    0.25400    0.11890    1.000
    N46      N        0.06380    0.16540    0.28130    1.000
    N47      N        0.07000    0.21850    0.23430    1.000
    C109     C        0.09490    0.19040    0.35610    1.000
    H109     H        0.10060    0.16330    0.40230    1.000
    C110     C        0.10240    0.27400    0.28240    1.000
    H110     H        0.11270    0.31750    0.26440    1.000
    N48      N        0.11780    0.25810    0.35950    1.000
    N49      N        0.94930    0.16780    0.14350    1.000
    N50      N        0.97460    0.21850    0.11480    1.000
    C111     C        0.89840    0.19370    0.11690    1.000
    H111     H        0.87010    0.16670    0.12300    1.000
    C112     C        0.93580    0.27250    0.07720    1.000
    H112     H        0.94170    0.31420    0.05180    1.000
    N51      N        0.88670    0.25820    0.08120    1.000
    N52      N        0.03830    0.07720    0.14370    1.000
    N53      N        0.05140    0.13870    0.11700    1.000
    C113     C        0.05390    0.02190    0.11180    1.000
    H113     H        0.04980    0.97110    0.12060    1.000
    C114     C        0.07560    0.11990    0.06920    1.000
    H114     H        0.08930    0.15360    0.04380    1.000
    N54      N        0.07650    0.04720    0.06470    1.000
    Cu9      Cu       0.80305    0.85002    0.02418    1.000
    Cu10     Cu       0.69417    0.81547    0.96655    1.000
    O33      O        0.78290    0.89230    0.10620    1.000
    O34      O        0.69050    0.87700    0.04880    1.000
    C115     C        0.73430    0.89930    0.10190    1.000
    C116     C        0.73690    0.94160    0.17260    1.000
    C117     C        0.78360    0.99800    0.20810    1.000
    C118     C        0.68430    0.97850    0.14670    1.000
    C119     C        0.74610    0.89410    0.24420    1.000
    C120     C        0.72810    0.82460    0.23230    1.000
    O35      O        0.76920    0.93600    0.95410    1.000
    O36      O        0.67950    0.90410    0.90060    1.000
    C121     C        0.71810    0.94810    0.91020    1.000
    C122     C        0.70510    0.01800    0.86310    1.000
    H115     H        0.66790    0.01160    0.81320    1.000
    C123     C        0.75050    0.04520    0.83850    1.000
    H116     H        0.78830    0.02360    0.87430    1.000
    H117     H        0.73930    0.03050    0.78260    1.000
    C124     C        0.69950    0.08190    0.90970    1.000
    C125     C        0.74740    0.08150    0.99910    1.000
    H118     H        0.78470    0.07710    0.00100    1.000
    H119     H        0.74160    0.03950    0.02710    1.000
    H120     H        0.74580    0.12750    0.02510    1.000
    C126     C        0.63900    0.08380    0.90750    1.000
    H121     H        0.63650    0.04310    0.93990    1.000
    H122     H        0.60870    0.07850    0.85200    1.000
    H123     H        0.63440    0.13090    0.92920    1.000
    O37      O        0.19840    0.79760    0.06730    1.000
    O38      O        0.28950    0.76340    0.11080    1.000
    C127     C        0.24470    0.76510    0.11550    1.000
    C128     C        0.24090    0.72580    0.18640    1.000
    C129     C        0.18290    0.69660    0.16810    1.000
    H124     H        0.17600    0.64650    0.14450    1.000
    H125     H        0.15180    0.73010    0.13260    1.000
    C130     C        0.26730    0.77820    0.26390    1.000
    C131     C        0.24860    0.85140    0.25060    1.000
    C132     C        0.33150    0.78740    0.30310    1.000
    O39      O        0.67720    0.25750    0.91510    1.000
    O40      O        0.76980    0.23830    0.95340    1.000
    C133     C        0.71710    0.22420    0.91260    1.000
    C134     C        0.69950    0.15240    0.86130    1.000
    C135     C        0.65110    0.16780    0.78570    1.000
    H126     H        0.62100    0.19030    0.79440    1.000
    H127     H        0.63690    0.12170    0.75550    1.000
    H128     H        0.66210    0.20180    0.75520    1.000
    C136     C        0.75250    0.12560    0.84580    1.000
    H129     H        0.74900    0.14840    0.79610    1.000
    H130     H        0.78940    0.14110    0.89120    1.000
    Cu11     Cu       0.20283    0.86262    0.46150    1.000
    Cu12     Cu       0.30832    0.81690    0.55020    1.000
    O41      O        0.23990    0.94080    0.43840    1.000
    O42      O        0.33180    0.91090    0.52390    1.000
    C137     C        0.29370    0.95530    0.47310    1.000
    C138     C        0.31690    0.02670    0.44970    1.000
    C139     C        0.26810    0.05870    0.36660    1.000
    H131     H        0.26810    0.03310    0.32040    1.000
    H132     H        0.23000    0.05370    0.36310    1.000
    C140     C        0.37210    0.01010    0.45330    1.000
    H133     H        0.40230    0.01130    0.50920    1.000
    H134     H        0.38030    0.04710    0.42220    1.000
    H135     H        0.37070    0.96100    0.43080    1.000
    C141     C        0.32140    0.09120    0.50440    1.000
    C142     C        0.27130    0.09300    0.52530    1.000
    H136     H        0.23700    0.07220    0.48060    1.000
    H137     H        0.26390    0.14420    0.53450    1.000
    H138     H        0.28160    0.06390    0.57380    1.000
    C143     C        0.37530    0.09930    0.57470    1.000
    H139     H        0.37760    0.14830    0.59800    1.000
    H140     H        0.40600    0.09400    0.56040    1.000
    H141     H        0.37930    0.06130    0.61380    1.000
    O43      O        0.21100    0.79990    0.38080    1.000
    O44      O        0.30370    0.77370    0.45450    1.000
    C144     C        0.25750    0.76970    0.39140    1.000
    C145     C        0.25450    0.72850    0.31900    1.000
    C146     C        0.19190    0.69630    0.25800    1.000
    H142     H        0.18820    0.64520    0.27370    1.000
    H143     H        0.16210    0.72700    0.26090    1.000
    C147     C        0.29810    0.67390    0.34170    1.000
    H144     H        0.31240    0.67310    0.30250    1.000
    H145     H        0.28240    0.62540    0.34330    1.000
    H146     H        0.32950    0.68580    0.39490    1.000
    O45      O        0.32890    0.27600    0.51220    1.000
    O46      O        0.24070    0.23430    0.44200    1.000
    C148     C        0.29460    0.22800    0.47060    1.000
    C149     C        0.31530    0.15910    0.45200    1.000
    H147     H        0.35460    0.17010    0.46050    1.000
    C150     C        0.28320    0.13250    0.36910    1.000
    H148     H        0.24830    0.16260    0.34000    1.000
    H149     H        0.30680    0.13840    0.34180    1.000
    O47      O        0.78500    0.91230    0.43760    1.000
    O48      O        0.69620    0.86830    0.36250    1.000
    C151     C        0.74070    0.90530    0.37390    1.000
    C152     C        0.73460    0.94450    0.29920    1.000
    H150     H        0.76310    0.98560    0.31670    1.000
    C153     C        0.67250    0.97970    0.25110    1.000
    Co4      Co       0.50352    0.58090    0.22107    1.000
    B7       B        0.47240    0.45130    0.31070    1.000
    H151     H        0.46120    0.41260    0.33830    1.000
    N55      N        0.44460    0.49310    0.16510    1.000
    N56      N        0.43870    0.44280    0.21810    1.000
    C154     C        0.40910    0.46520    0.09610    1.000
    H152     H        0.40020    0.49110    0.04790    1.000
    C155     C        0.40160    0.38840    0.17320    1.000
    H153     H        0.38900    0.34880    0.19370    1.000
    N57      N        0.38560    0.40050    0.09360    1.000
    N58      N        0.55780    0.49420    0.30120    1.000
    N59      N        0.53310    0.44650    0.33390    1.000
    C156     C        0.61060    0.47370    0.33630    1.000
    H154     H        0.63840    0.50000    0.32840    1.000
    C157     C        0.57450    0.40070    0.38300    1.000
    H155     H        0.56890    0.36310    0.41350    1.000
    N60      N        0.62520    0.41350    0.38470    1.000
    N61      N        0.47010    0.58830    0.29950    1.000
    N62      N        0.45960    0.52850    0.32990    1.000
    C158     C        0.45730    0.64520    0.33530    1.000
    H156     H        0.46200    0.69540    0.32500    1.000
    C159     C        0.44320    0.55230    0.38660    1.000
    H157     H        0.43660    0.52040    0.42130    1.000
    N63      N        0.43800    0.62560    0.38540    1.000
    B8       B        0.53870    0.71300    0.14270    1.000
    H158     H        0.55090    0.75400    0.11890    1.000
    N64      N        0.56380    0.66540    0.28130    1.000
    N65      N        0.57000    0.71850    0.23430    1.000
    C160     C        0.59490    0.69040    0.35610    1.000
    H159     H        0.60060    0.66330    0.40230    1.000
    C161     C        0.60240    0.77400    0.28240    1.000
    H160     H        0.61270    0.81750    0.26440    1.000
    N66      N        0.61780    0.75810    0.35950    1.000
    N67      N        0.44930    0.66780    0.14350    1.000
    N68      N        0.47460    0.71850    0.11480    1.000
    C162     C        0.39840    0.69370    0.11690    1.000
    H161     H        0.37010    0.66670    0.12300    1.000
    C163     C        0.43580    0.77250    0.07720    1.000
    H162     H        0.44170    0.81420    0.05180    1.000
    N69      N        0.38670    0.75820    0.08120    1.000
    N70      N        0.53830    0.57720    0.14370    1.000
    N71      N        0.55140    0.63870    0.11700    1.000
    C164     C        0.55390    0.52190    0.11180    1.000
    H163     H        0.54980    0.47110    0.12060    1.000
    C165     C        0.57560    0.61990    0.06920    1.000
    H164     H        0.58930    0.65360    0.04380    1.000
    N72      N        0.57650    0.54720    0.06470    1.000
    Cu13     Cu       0.30305    0.35002    0.02418    1.000
    Cu14     Cu       0.19417    0.31547    0.96655    1.000
    O49      O        0.28290    0.39230    0.10620    1.000
    O50      O        0.19050    0.37700    0.04880    1.000
    C166     C        0.23430    0.39930    0.10190    1.000
    C167     C        0.23690    0.44160    0.17260    1.000
    C168     C        0.28360    0.49800    0.20810    1.000
    C169     C        0.18430    0.47850    0.14670    1.000
    C170     C        0.24610    0.39410    0.24420    1.000
    C171     C        0.22810    0.32460    0.23230    1.000
    O51      O        0.26920    0.43600    0.95410    1.000
    O52      O        0.17950    0.40410    0.90060    1.000
    C172     C        0.21810    0.44810    0.91020    1.000
    C173     C        0.20510    0.51800    0.86310    1.000
    H165     H        0.16790    0.51160    0.81320    1.000
    C174     C        0.25050    0.54520    0.83850    1.000
    H166     H        0.28830    0.52360    0.87430    1.000
    H167     H        0.23930    0.53050    0.78260    1.000
    C175     C        0.19950    0.58190    0.90970    1.000
    C176     C        0.24740    0.58150    0.99910    1.000
    H168     H        0.28470    0.57710    0.00100    1.000
    H169     H        0.24160    0.53950    0.02710    1.000
    H170     H        0.24580    0.62750    0.02510    1.000
    C177     C        0.13900    0.58380    0.90750    1.000
    H171     H        0.13650    0.54310    0.93990    1.000
    H172     H        0.10870    0.57850    0.85200    1.000
    H173     H        0.13440    0.63090    0.92920    1.000
    O53      O        0.69840    0.29760    0.06730    1.000
    O54      O        0.78950    0.26340    0.11080    1.000
    C178     C        0.74470    0.26510    0.11550    1.000
    C179     C        0.74090    0.22580    0.18640    1.000
    C180     C        0.68290    0.19660    0.16810    1.000
    H174     H        0.67600    0.14650    0.14450    1.000
    H175     H        0.65180    0.23010    0.13260    1.000
    C181     C        0.76730    0.27820    0.26390    1.000
    C182     C        0.74860    0.35140    0.25060    1.000
    C183     C        0.83150    0.28740    0.30310    1.000
    O55      O        0.17720    0.75750    0.91510    1.000
    O56      O        0.26980    0.73830    0.95340    1.000
    C184     C        0.21710    0.72420    0.91260    1.000
    C185     C        0.19950    0.65240    0.86130    1.000
    C186     C        0.15110    0.66780    0.78570    1.000
    H176     H        0.12100    0.69030    0.79440    1.000
    H177     H        0.13690    0.62170    0.75550    1.000
    H178     H        0.16210    0.70180    0.75520    1.000
    C187     C        0.25250    0.62560    0.84580    1.000
    H179     H        0.24900    0.64840    0.79610    1.000
    H180     H        0.28940    0.64110    0.89120    1.000
    Cu15     Cu       0.70283    0.36262    0.46150    1.000
    Cu16     Cu       0.80832    0.31690    0.55020    1.000
    O57      O        0.73990    0.44080    0.43840    1.000
    O58      O        0.83180    0.41090    0.52390    1.000
    C188     C        0.79370    0.45530    0.47310    1.000
    C189     C        0.81690    0.52670    0.44970    1.000
    C190     C        0.76810    0.55870    0.36660    1.000
    H181     H        0.76810    0.53310    0.32040    1.000
    H182     H        0.73000    0.55370    0.36310    1.000
    C191     C        0.87210    0.51010    0.45330    1.000
    H183     H        0.90230    0.51130    0.50920    1.000
    H184     H        0.88030    0.54710    0.42220    1.000
    H185     H        0.87070    0.46100    0.43080    1.000
    C192     C        0.82140    0.59120    0.50440    1.000
    C193     C        0.77130    0.59300    0.52530    1.000
    H186     H        0.73700    0.57220    0.48060    1.000
    H187     H        0.76390    0.64420    0.53450    1.000
    H188     H        0.78160    0.56390    0.57380    1.000
    C194     C        0.87530    0.59930    0.57470    1.000
    H189     H        0.87760    0.64830    0.59800    1.000
    H190     H        0.90600    0.59400    0.56040    1.000
    H191     H        0.87930    0.56130    0.61380    1.000
    O59      O        0.71100    0.29990    0.38080    1.000
    O60      O        0.80370    0.27370    0.45450    1.000
    C195     C        0.75750    0.26970    0.39140    1.000
    C196     C        0.75450    0.22850    0.31900    1.000
    C197     C        0.69190    0.19630    0.25800    1.000
    H192     H        0.68820    0.14520    0.27370    1.000
    H193     H        0.66210    0.22700    0.26090    1.000
    C198     C        0.79810    0.17390    0.34170    1.000
    H194     H        0.81240    0.17310    0.30250    1.000
    H195     H        0.78240    0.12540    0.34330    1.000
    H196     H        0.82950    0.18580    0.39490    1.000
    O61      O        0.82890    0.77600    0.51220    1.000
    O62      O        0.74070    0.73430    0.44200    1.000
    C199     C        0.79460    0.72800    0.47060    1.000
    C200     C        0.81530    0.65910    0.45200    1.000
    H197     H        0.85460    0.67010    0.46050    1.000
    C201     C        0.78320    0.63250    0.36910    1.000
    H198     H        0.74830    0.66260    0.34000    1.000
    H199     H        0.80680    0.63840    0.34180    1.000
    O63      O        0.28500    0.41230    0.43760    1.000
    O64      O        0.19620    0.36830    0.36250    1.000
    C202     C        0.24070    0.40530    0.37390    1.000
    C203     C        0.23460    0.44450    0.29920    1.000
    H200     H        0.26310    0.48560    0.31670    1.000
    C204     C        0.17250    0.47970    0.25110    1.000
