# CIF file generated by openbabel 3.1.0, see https://openbabel.org
data_I
_chemical_name_common 'image0'
_cell_length_a 9.774
_cell_length_b 13.918
_cell_length_c 7.715
_cell_angle_alpha 90.41
_cell_angle_beta 90.43
_cell_angle_gamma 93.18
_space_group_name_H-M_alt 'P 1'
_space_group_name_Hall 'P 1'
loop_
    _symmetry_equiv_pos_as_xyz
    x,y,z
loop_
    _atom_site_label
    _atom_site_type_symbol
    _atom_site_fract_x
    _atom_site_fract_y
    _atom_site_fract_z
    _atom_site_occupancy
    Cd1      Cd       0.09521    0.26437    0.50349    1.000
    C1       C        0.02900    0.09230    0.17300    1.000
    C2       C        0.07300    0.42590    0.17300    1.000
    C3       C        0.08300    0.42860    0.83100    1.000
    C4       C        0.04300    0.09150    0.83100    1.000
    C5       C        0.41800    0.32040    0.51300    1.000
    C6       C        0.56800    0.29900    0.49400    1.000
    C7       C        0.66400    0.38560    0.52200    1.000
    C8       C        0.81400    0.37100    0.48000    1.000
    N1       N        0.04800    0.14790    0.27900    1.000
    N2       N        0.11500    0.37990    0.28300    1.000
    N3       N        0.13000    0.38400    0.72400    1.000
    N4       N        0.06900    0.14720    0.72600    1.000
    N5       N        0.32210    0.23860    0.48500    1.000
    N6       N        0.86400    0.28610    0.53900    1.000
    H1       H        0.33969    0.21227    0.35318    1.000
    H2       H        0.34559    0.18517    0.57520    1.000
    H3       H        0.40157    0.34882    0.64085    1.000
    H4       H        0.39414    0.37672    0.41925    1.000
    H5       H        0.58276    0.27122    0.36448    1.000
    H6       H        0.59126    0.24600    0.58711    1.000
    H7       H        0.66014    0.40661    0.65423    1.000
    H8       H        0.62985    0.44289    0.44022    1.000
    H9       H        0.87627    0.43165    0.52635    1.000
    H10      H        0.82416    0.36898    0.33636    1.000
    H11      H        0.80682    0.22314    0.48741    1.000
    H12      H        0.84533    0.28331    0.68437    1.000
    Cd2      Cd       0.90479    0.73563    0.49651    1.000
    C9       C        0.97100    0.90770    0.82700    1.000
    C10      C        0.92700    0.57410    0.82700    1.000
    C11      C        0.91700    0.57140    0.16900    1.000
    C12      C        0.95700    0.90850    0.16900    1.000
    C13      C        0.58200    0.67960    0.48700    1.000
    C14      C        0.43200    0.70100    0.50600    1.000
    C15      C        0.33600    0.61440    0.47800    1.000
    C16      C        0.18600    0.62900    0.52000    1.000
    N7       N        0.95200    0.85210    0.72100    1.000
    N8       N        0.88500    0.62010    0.71700    1.000
    N9       N        0.87000    0.61600    0.27600    1.000
    N10      N        0.93100    0.85280    0.27400    1.000
    N11      N        0.67790    0.76140    0.51500    1.000
    N12      N        0.13600    0.71390    0.46100    1.000
    H13      H        0.66031    0.78773    0.64682    1.000
    H14      H        0.65441    0.81483    0.42480    1.000
    H15      H        0.59843    0.65118    0.35915    1.000
    H16      H        0.60586    0.62328    0.58075    1.000
    H17      H        0.41724    0.72878    0.63552    1.000
    H18      H        0.40874    0.75400    0.41289    1.000
    H19      H        0.33986    0.59339    0.34577    1.000
    H20      H        0.37015    0.55711    0.55978    1.000
    H21      H        0.12373    0.56835    0.47365    1.000
    H22      H        0.17584    0.63102    0.66364    1.000
    H23      H        0.19318    0.77686    0.51259    1.000
    H24      H        0.15467    0.71669    0.31563    1.000
    Ni1      Ni       0.00000    0.00000    0.00000    1.000
    Ni2      Ni       0.00000    0.50000    0.00000    1.000
