# CIF file generated by openbabel 3.1.0, see https://openbabel.org
data_I
_chemical_name_common 'image0'
_cell_length_a 14.4388
_cell_length_b 16.4128
_cell_length_c 19.331
_cell_angle_alpha 90
_cell_angle_beta 107.606
_cell_angle_gamma 90
_space_group_name_H-M_alt 'P 1'
_space_group_name_Hall 'P 1'
loop_
    _symmetry_equiv_pos_as_xyz
    x,y,z
loop_
    _atom_site_label
    _atom_site_type_symbol
    _atom_site_fract_x
    _atom_site_fract_y
    _atom_site_fract_z
    _atom_site_occupancy
    C1       C        0.86730    0.32520    0.88720    1.000
    C2       C        0.94770    0.29680    0.94250    1.000
    H1       H        0.00930    0.30350    0.93750    1.000
    C3       C        0.93940    0.25930    0.00410    1.000
    C4       C        0.84730    0.24700    0.01070    1.000
    H2       H        0.83970    0.22020    0.05110    1.000
    C5       C        0.76590    0.27530    0.95620    1.000
    C6       C        0.77480    0.31410    0.89450    1.000
    H3       H        0.72000    0.33230    0.85870    1.000
    C7       C        0.87420    0.37290    0.82380    1.000
    C8       C        0.02190    0.22270    0.05970    1.000
    C9       C        0.66930    0.26230    0.96280    1.000
    C10      C        0.59150    0.25170    0.96970    1.000
    C11      C        0.49670    0.25120    0.97820    1.000
    C12      C        0.48480    0.21730    0.04200    1.000
    H4       H        0.53770    0.19420    0.07660    1.000
    C13      C        0.39480    0.21820    0.05320    1.000
    C14      C        0.31330    0.25440    0.00510    1.000
    H5       H        0.25390    0.25670    0.01450    1.000
    C15      C        0.32680    0.28800    0.93990    1.000
    C16      C        0.41540    0.28520    0.92930    1.000
    H6       H        0.42180    0.30730    0.88670    1.000
    C17      C        0.38280    0.18730    0.12210    1.000
    C18      C        0.24570    0.32200    0.88520    1.000
    C19      C        0.54340    0.49270    0.78900    1.000
    C20      C        0.53680    0.47300    0.85930    1.000
    H7       H        0.55710    0.42180    0.87850    1.000
    C21      C        0.50210    0.52590    0.89900    1.000
    C22      C        0.46820    0.60080    0.86870    1.000
    H8       H        0.44170    0.63720    0.89440    1.000
    C23      C        0.47360    0.62240    0.79840    1.000
    C24      C        0.50990    0.56970    0.75940    1.000
    H9       H        0.51280    0.58400    0.71360    1.000
    C25      C        0.58340    0.43720    0.74330    1.000
    C26      C        0.44580    0.70170    0.76550    1.000
    C27      C        0.50040    0.50900    0.97050    1.000
    C28      C        0.12820    0.55450    0.88140    1.000
    H10      H        0.08830    0.53760    0.91050    1.000
    H11      H        0.10750    0.60720    0.86100    1.000
    H12      H        0.19470    0.55730    0.91120    1.000
    Sm1      Sm       0.67709    0.34347    0.66893    1.000
    Sm2      Sm       0.07834    0.36427    0.77097    1.000
    O1       O        0.79990    0.38610    0.77280    1.000
    O2       O        0.95720    0.38840    0.82170    1.000
    O3       O        0.10670    0.24280    0.06190    1.000
    O4       O        0.00740    0.18070    0.10650    1.000
    O5       O        0.44820    0.13810    0.16170    1.000
    O6       O        0.30790    0.20590    0.14100    1.000
    O7       O        0.16670    0.32480    0.89830    1.000
    O8       O        0.24590    0.34760    0.82650    1.000
    O9       O        0.59200    0.36480    0.76210    1.000
    O10      O        0.61560    0.46630    0.69580    1.000
    O11      O        0.47680    0.72940    0.72050    1.000
    O12      O        0.38470    0.74480    0.79110    1.000
    O13      O        0.11870    0.49240    0.81960    1.000
    H13      H        0.13560    0.50380    0.78220    1.000
    C29      C        0.63270    0.82520    0.61280    1.000
    C30      C        0.55230    0.79680    0.55750    1.000
    H14      H        0.49070    0.80350    0.56250    1.000
    C31      C        0.56060    0.75930    0.49590    1.000
    C32      C        0.65270    0.74700    0.48930    1.000
    H15      H        0.66030    0.72020    0.44890    1.000
    C33      C        0.73410    0.77530    0.54380    1.000
    C34      C        0.72520    0.81410    0.60550    1.000
    H16      H        0.78000    0.83230    0.64130    1.000
    C35      C        0.62580    0.87290    0.67620    1.000
    C36      C        0.47810    0.72270    0.44030    1.000
    C37      C        0.83070    0.76230    0.53720    1.000
    C38      C        0.90850    0.75170    0.53030    1.000
    C39      C        0.00330    0.75120    0.52180    1.000
    C40      C        0.01520    0.71730    0.45800    1.000
    H17      H        0.96230    0.69420    0.42340    1.000
    C41      C        0.10520    0.71820    0.44680    1.000
    C42      C        0.18670    0.75440    0.49490    1.000
    H18      H        0.24610    0.75670    0.48550    1.000
    C43      C        0.17320    0.78800    0.56010    1.000
    C44      C        0.08460    0.78520    0.57070    1.000
    H19      H        0.07820    0.80730    0.61330    1.000
    C45      C        0.11720    0.68730    0.37790    1.000
    C46      C        0.25430    0.82200    0.61480    1.000
    C47      C        0.95660    0.99270    0.71100    1.000
    C48      C        0.96320    0.97300    0.64070    1.000
    H20      H        0.94290    0.92180    0.62150    1.000
    C49      C        0.99790    0.02590    0.60100    1.000
    C50      C        0.03180    0.10080    0.63130    1.000
    H21      H        0.05830    0.13720    0.60560    1.000
    C51      C        0.02640    0.12240    0.70160    1.000
    C52      C        0.99010    0.06970    0.74060    1.000
    H22      H        0.98720    0.08400    0.78640    1.000
    C53      C        0.91660    0.93720    0.75670    1.000
    C54      C        0.05420    0.20170    0.73450    1.000
    C55      C        0.99960    0.00900    0.52950    1.000
    C56      C        0.37180    0.05450    0.61860    1.000
    H23      H        0.41170    0.03760    0.58950    1.000
    H24      H        0.39250    0.10720    0.63900    1.000
    H25      H        0.30530    0.05730    0.58880    1.000
    Sm3      Sm       0.82291    0.84347    0.83107    1.000
    Sm4      Sm       0.42166    0.86427    0.72903    1.000
    O14      O        0.70010    0.88610    0.72720    1.000
    O15      O        0.54280    0.88840    0.67830    1.000
    O16      O        0.39330    0.74280    0.43810    1.000
    O17      O        0.49260    0.68070    0.39350    1.000
    O18      O        0.05180    0.63810    0.33830    1.000
    O19      O        0.19210    0.70590    0.35900    1.000
    O20      O        0.33330    0.82480    0.60170    1.000
    O21      O        0.25410    0.84760    0.67350    1.000
    O22      O        0.90800    0.86480    0.73790    1.000
    O23      O        0.88440    0.96630    0.80420    1.000
    O24      O        0.02320    0.22940    0.77950    1.000
    O25      O        0.11530    0.24480    0.70890    1.000
    O26      O        0.38130    0.99240    0.68040    1.000
    H26      H        0.36440    0.00380    0.71780    1.000
    C57      C        0.13270    0.67480    0.11280    1.000
    C58      C        0.05230    0.70320    0.05750    1.000
    H27      H        0.99070    0.69650    0.06250    1.000
    C59      C        0.06060    0.74070    0.99590    1.000
    C60      C        0.15270    0.75300    0.98930    1.000
    H28      H        0.16030    0.77980    0.94890    1.000
    C61      C        0.23410    0.72470    0.04380    1.000
    C62      C        0.22520    0.68590    0.10550    1.000
    H29      H        0.28000    0.66770    0.14130    1.000
    C63      C        0.12580    0.62710    0.17620    1.000
    C64      C        0.97810    0.77730    0.94030    1.000
    C65      C        0.33070    0.73770    0.03720    1.000
    C66      C        0.40850    0.74830    0.03030    1.000
    C67      C        0.50330    0.74880    0.02180    1.000
    C68      C        0.51520    0.78270    0.95800    1.000
    H30      H        0.46230    0.80580    0.92340    1.000
    C69      C        0.60520    0.78180    0.94680    1.000
    C70      C        0.68670    0.74560    0.99490    1.000
    H31      H        0.74610    0.74330    0.98550    1.000
    C71      C        0.67320    0.71200    0.06010    1.000
    C72      C        0.58460    0.71480    0.07070    1.000
    H32      H        0.57820    0.69270    0.11330    1.000
    C73      C        0.61720    0.81270    0.87790    1.000
    C74      C        0.75430    0.67800    0.11480    1.000
    C75      C        0.45660    0.50730    0.21100    1.000
    C76      C        0.46320    0.52700    0.14070    1.000
    H33      H        0.44290    0.57820    0.12150    1.000
    C77      C        0.49790    0.47410    0.10100    1.000
    C78      C        0.53180    0.39920    0.13130    1.000
    H34      H        0.55830    0.36280    0.10560    1.000
    C79      C        0.52640    0.37760    0.20160    1.000
    C80      C        0.49010    0.43030    0.24060    1.000
    H35      H        0.48720    0.41600    0.28640    1.000
    C81      C        0.41660    0.56280    0.25670    1.000
    C82      C        0.55420    0.29830    0.23450    1.000
    C83      C        0.49960    0.49100    0.02950    1.000
    C84      C        0.87180    0.44550    0.11860    1.000
    H36      H        0.91170    0.46240    0.08950    1.000
    H37      H        0.89250    0.39280    0.13900    1.000
    H38      H        0.80530    0.44270    0.08880    1.000
    Sm5      Sm       0.32291    0.65653    0.33107    1.000
    Sm6      Sm       0.92166    0.63573    0.22903    1.000
    O27      O        0.20010    0.61390    0.22720    1.000
    O28      O        0.04280    0.61160    0.17830    1.000
    O29      O        0.89330    0.75720    0.93810    1.000
    O30      O        0.99260    0.81930    0.89350    1.000
    O31      O        0.55180    0.86190    0.83830    1.000
    O32      O        0.69210    0.79410    0.85900    1.000
    O33      O        0.83330    0.67520    0.10170    1.000
    O34      O        0.75410    0.65240    0.17350    1.000
    O35      O        0.40800    0.63520    0.23790    1.000
    O36      O        0.38440    0.53370    0.30420    1.000
    O37      O        0.52320    0.27060    0.27950    1.000
    O38      O        0.61530    0.25520    0.20890    1.000
    O39      O        0.88130    0.50760    0.18040    1.000
    H39      H        0.86440    0.49620    0.21780    1.000
    C85      C        0.36730    0.17480    0.38720    1.000
    C86      C        0.44770    0.20320    0.44250    1.000
    H40      H        0.50930    0.19650    0.43750    1.000
    C87      C        0.43940    0.24070    0.50410    1.000
    C88      C        0.34730    0.25300    0.51070    1.000
    H41      H        0.33970    0.27980    0.55110    1.000
    C89      C        0.26590    0.22470    0.45620    1.000
    C90      C        0.27480    0.18590    0.39450    1.000
    H42      H        0.22000    0.16770    0.35870    1.000
    C91      C        0.37420    0.12710    0.32380    1.000
    C92      C        0.52190    0.27730    0.55970    1.000
    C93      C        0.16930    0.23770    0.46280    1.000
    C94      C        0.09150    0.24830    0.46970    1.000
    C95      C        0.99670    0.24880    0.47820    1.000
    C96      C        0.98480    0.28270    0.54200    1.000
    H43      H        0.03770    0.30580    0.57660    1.000
    C97      C        0.89480    0.28180    0.55320    1.000
    C98      C        0.81330    0.24560    0.50510    1.000
    H44      H        0.75390    0.24330    0.51450    1.000
    C99      C        0.82680    0.21200    0.43990    1.000
    C100     C        0.91540    0.21480    0.42930    1.000
    H45      H        0.92180    0.19270    0.38670    1.000
    C101     C        0.88280    0.31270    0.62210    1.000
    C102     C        0.74570    0.17800    0.38520    1.000
    C103     C        0.04340    0.00730    0.28900    1.000
    C104     C        0.03680    0.02700    0.35930    1.000
    H46      H        0.05710    0.07820    0.37850    1.000
    C105     C        0.00210    0.97410    0.39900    1.000
    C106     C        0.96820    0.89920    0.36870    1.000
    H47      H        0.94170    0.86280    0.39440    1.000
    C107     C        0.97360    0.87760    0.29840    1.000
    C108     C        0.00990    0.93030    0.25940    1.000
    H48      H        0.01280    0.91600    0.21360    1.000
    C109     C        0.08340    0.06280    0.24330    1.000
    C110     C        0.94580    0.79830    0.26550    1.000
    C111     C        0.00040    0.99100    0.47050    1.000
    C112     C        0.62820    0.94550    0.38140    1.000
    H49      H        0.58830    0.96240    0.41050    1.000
    H50      H        0.60750    0.89280    0.36100    1.000
    H51      H        0.69470    0.94270    0.41120    1.000
    Sm7      Sm       0.17709    0.15653    0.16893    1.000
    Sm8      Sm       0.57834    0.13573    0.27097    1.000
    O40      O        0.29990    0.11390    0.27280    1.000
    O41      O        0.45720    0.11160    0.32170    1.000
    O42      O        0.60670    0.25720    0.56190    1.000
    O43      O        0.50740    0.31930    0.60650    1.000
    O44      O        0.94820    0.36190    0.66170    1.000
    O45      O        0.80790    0.29410    0.64100    1.000
    O46      O        0.66670    0.17520    0.39830    1.000
    O47      O        0.74590    0.15240    0.32650    1.000
    O48      O        0.09200    0.13520    0.26210    1.000
    O49      O        0.11560    0.03370    0.19580    1.000
    O50      O        0.97680    0.77060    0.22050    1.000
    O51      O        0.88470    0.75520    0.29110    1.000
    O52      O        0.61870    0.00760    0.31960    1.000
    H52      H        0.63560    0.99620    0.28220    1.000
