# CIF file generated by openbabel 3.1.0, see https://openbabel.org
data_I
_chemical_name_common 'image0'
_cell_length_a 22.8097
_cell_length_b 36.695
_cell_length_c 14.4183
_cell_angle_alpha 90
_cell_angle_beta 106.313
_cell_angle_gamma 90
_space_group_name_H-M_alt 'P 1'
_space_group_name_Hall 'P 1'
loop_
    _symmetry_equiv_pos_as_xyz
    x,y,z
loop_
    _atom_site_label
    _atom_site_type_symbol
    _atom_site_fract_x
    _atom_site_fract_y
    _atom_site_fract_z
    _atom_site_occupancy
    Co1      Co       0.85690    0.25883    0.03723    1.000
    N1       N        0.87644    0.20741    0.97266    1.000
    O1       O        0.80542    0.27162    0.90603    1.000
    O2       O        0.70689    0.26933    0.90876    1.000
    C1       C        0.92290    0.18640    0.03330    1.000
    C2       C        0.84450    0.19290    0.88480    1.000
    C3       C        0.75071    0.27599    0.87189    1.000
    H1       H        0.94470    0.19620    0.09520    1.000
    C4       C        0.93730    0.15210    0.00640    1.000
    C5       C        0.85950    0.16030    0.85340    1.000
    H2       H        0.81240    0.20690    0.84220    1.000
    C6       C        0.72429    0.28462    0.76690    1.000
    H3       H        0.96940    0.13820    0.04910    1.000
    C7       C        0.90830    0.13940    0.91300    1.000
    H4       H        0.83770    0.15060    0.79150    1.000
    C8       C        0.76533    0.30051    0.72390    1.000
    C9       C        0.66253    0.28298    0.71729    1.000
    H5       H        0.80660    0.30200    0.75730    1.000
    C10      C        0.74433    0.31428    0.63020    1.000
    C11      C        0.64183    0.29680    0.62370    1.000
    H6       H        0.63500    0.27260    0.74660    1.000
    H7       H        0.77170    0.32490    0.60110    1.000
    C12      C        0.68267    0.31223    0.58020    1.000
    H8       H        0.60050    0.29560    0.59050    1.000
    N2       N        0.33454    0.80626    0.10307    1.000
    C13      C        0.37969    0.82628    0.16610    1.000
    C14      C        0.27412    0.81772    0.08070    1.000
    H9       H        0.42000    0.81830    0.18170    1.000
    C15      C        0.36520    0.85850    0.20680    1.000
    C16      C        0.25958    0.84994    0.12010    1.000
    H10      H        0.24350    0.80390    0.03950    1.000
    C17      C        0.30527    0.87024    0.18399    1.000
    H11      H        0.39580    0.87200    0.24900    1.000
    H12      H        0.21930    0.85800    0.10380    1.000
    O3       O        0.43405    0.25307    0.16219    1.000
    C18      C        0.48844    0.24119    0.19320    1.000
    O4       O        0.51235    0.21844    0.15030    1.000
    C19      C        0.93020    0.10220    0.89000    1.000
    C20      C        0.96930    0.08310    0.95050    1.000
    C21      C        0.89600    0.08840    0.79900    1.000
    C22      C        0.99150    0.04860    0.91440    1.000
    C23      C        0.91320    0.05380    0.77100    1.000
    H13      H        0.86150    0.10080    0.75750    1.000
    H14      H        0.02610    0.03620    0.95580    1.000
    C24      C        0.96114    0.03600    0.83270    1.000
    H15      H        0.89130    0.04310    0.71000    1.000
    C25      C        0.07430    0.97900    0.76460    1.000
    C26      C        0.00520    0.01912    0.65320    1.000
    H16      H        0.08410    0.96480    0.82290    1.000
    C27      C        0.11330    0.97912    0.70590    1.000
    C28      C        0.04320    0.01795    0.59320    1.000
    H17      H        0.96750    0.03240    0.63380    1.000
    H18      H        0.14980    0.96460    0.72250    1.000
    H19      H        0.03160    0.03080    0.53280    1.000
    C29      C        0.29251    0.90463    0.23130    1.000
    C30      C        0.33240    0.91600    0.31730    1.000
    C31      C        0.23966    0.92431    0.19010    1.000
    C32      C        0.31950    0.94780    0.36190    1.000
    H20      H        0.36760    0.90270    0.34540    1.000
    H21      H        0.21260    0.91630    0.13270    1.000
    C33      C        0.22707    0.95571    0.23370    1.000
    C34      C        0.26728    0.96748    0.32046    1.000
    H22      H        0.34630    0.95560    0.41970    1.000
    H23      H        0.19190    0.96900    0.20540    1.000
    C35      C        0.21750    0.03028    0.50010    1.000
    C36      C        0.17700    0.03101    0.55660    1.000
    H24      H        0.24290    0.05100    0.49900    1.000
    H25      H        0.17490    0.05200    0.59540    1.000
    C37      C        0.65325    0.33029    0.48360    1.000
    C38      C        0.61435    0.30255    0.41230    1.000
    C39      C        0.63060    0.26811    0.39200    1.000
    C40      C        0.55718    0.31663    0.36328    1.000
    H26      H        0.66880    0.25890    0.42460    1.000
    C41      C        0.59000    0.24675    0.32247    1.000
    C42      C        0.51705    0.29530    0.29380    1.000
    H27      H        0.54600    0.34000    0.37690    1.000
    H28      H        0.60110    0.22340    0.30890    1.000
    C43      C        0.53365    0.26036    0.27440    1.000
    H29      H        0.47900    0.30450    0.26030    1.000
    C44      C        0.69956    0.34683    0.43620    1.000
    F1       F        0.70619    0.32274    0.37058    1.000
    F2       F        0.67423    0.37785    0.39396    1.000
    F3       F        0.75331    0.35419    0.49981    1.000
    C45      C        0.61995    0.35912    0.52845    1.000
    F4       F        0.60359    0.38666    0.46707    1.000
    F5       F        0.66030    0.37281    0.60787    1.000
    F6       F        0.57687    0.34188    0.55787    1.000
    Co2      Co       0.35690    0.75883    0.03723    1.000
    N3       N        0.37644    0.70741    0.97266    1.000
    O5       O        0.30542    0.77162    0.90603    1.000
    O6       O        0.20689    0.76933    0.90876    1.000
    C46      C        0.42290    0.68640    0.03330    1.000
    C47      C        0.34450    0.69290    0.88480    1.000
    C48      C        0.25071    0.77599    0.87189    1.000
    H30      H        0.44470    0.69620    0.09520    1.000
    C49      C        0.43730    0.65210    0.00640    1.000
    C50      C        0.35950    0.66030    0.85340    1.000
    H31      H        0.31240    0.70690    0.84220    1.000
    C51      C        0.22429    0.78462    0.76690    1.000
    H32      H        0.46940    0.63820    0.04910    1.000
    C52      C        0.40830    0.63940    0.91300    1.000
    H33      H        0.33770    0.65060    0.79150    1.000
    C53      C        0.26533    0.80051    0.72390    1.000
    C54      C        0.16253    0.78298    0.71729    1.000
    H34      H        0.30660    0.80200    0.75730    1.000
    C55      C        0.24433    0.81428    0.63020    1.000
    C56      C        0.14183    0.79680    0.62370    1.000
    H35      H        0.13500    0.77260    0.74660    1.000
    H36      H        0.27170    0.82490    0.60110    1.000
    C57      C        0.18267    0.81223    0.58020    1.000
    H37      H        0.10050    0.79560    0.59050    1.000
    N4       N        0.83454    0.30626    0.10307    1.000
    C58      C        0.87969    0.32628    0.16610    1.000
    C59      C        0.77412    0.31772    0.08070    1.000
    H38      H        0.92000    0.31830    0.18170    1.000
    C60      C        0.86520    0.35850    0.20680    1.000
    C61      C        0.75958    0.34994    0.12010    1.000
    H39      H        0.74350    0.30390    0.03950    1.000
    C62      C        0.80527    0.37024    0.18399    1.000
    H40      H        0.89580    0.37200    0.24900    1.000
    H41      H        0.71930    0.35800    0.10380    1.000
    O7       O        0.93405    0.75307    0.16219    1.000
    C63      C        0.98844    0.74119    0.19320    1.000
    O8       O        0.01235    0.71844    0.15030    1.000
    C64      C        0.43020    0.60220    0.89000    1.000
    C65      C        0.46930    0.58310    0.95050    1.000
    C66      C        0.39600    0.58840    0.79900    1.000
    C67      C        0.49150    0.54860    0.91440    1.000
    C68      C        0.41320    0.55380    0.77100    1.000
    H42      H        0.36150    0.60080    0.75750    1.000
    H43      H        0.52610    0.53620    0.95580    1.000
    C69      C        0.46114    0.53600    0.83270    1.000
    H44      H        0.39130    0.54310    0.71000    1.000
    C70      C        0.57430    0.47900    0.76460    1.000
    C71      C        0.50520    0.51912    0.65320    1.000
    H45      H        0.58410    0.46480    0.82290    1.000
    C72      C        0.61330    0.47912    0.70590    1.000
    C73      C        0.54320    0.51795    0.59320    1.000
    H46      H        0.46750    0.53240    0.63380    1.000
    H47      H        0.64980    0.46460    0.72250    1.000
    H48      H        0.53160    0.53080    0.53280    1.000
    C74      C        0.79251    0.40463    0.23130    1.000
    C75      C        0.83240    0.41600    0.31730    1.000
    C76      C        0.73966    0.42431    0.19010    1.000
    C77      C        0.81950    0.44780    0.36190    1.000
    H49      H        0.86760    0.40270    0.34540    1.000
    H50      H        0.71260    0.41630    0.13270    1.000
    C78      C        0.72707    0.45571    0.23370    1.000
    C79      C        0.76728    0.46748    0.32046    1.000
    H51      H        0.84630    0.45560    0.41970    1.000
    H52      H        0.69190    0.46900    0.20540    1.000
    C80      C        0.71750    0.53028    0.50010    1.000
    C81      C        0.67700    0.53101    0.55660    1.000
    H53      H        0.74290    0.55100    0.49900    1.000
    H54      H        0.67490    0.55200    0.59540    1.000
    C82      C        0.15325    0.83029    0.48360    1.000
    C83      C        0.11435    0.80255    0.41230    1.000
    C84      C        0.13060    0.76811    0.39200    1.000
    C85      C        0.05718    0.81663    0.36328    1.000
    H55      H        0.16880    0.75890    0.42460    1.000
    C86      C        0.09000    0.74675    0.32247    1.000
    C87      C        0.01705    0.79530    0.29380    1.000
    H56      H        0.04600    0.84000    0.37690    1.000
    H57      H        0.10110    0.72340    0.30890    1.000
    C88      C        0.03365    0.76036    0.27440    1.000
    H58      H        0.97900    0.80450    0.26030    1.000
    C89      C        0.19956    0.84683    0.43620    1.000
    F7       F        0.20619    0.82274    0.37058    1.000
    F8       F        0.17423    0.87785    0.39396    1.000
    F9       F        0.25331    0.85419    0.49981    1.000
    C90      C        0.11995    0.85912    0.52845    1.000
    F10      F        0.10359    0.88666    0.46707    1.000
    F11      F        0.16030    0.87281    0.60787    1.000
    F12      F        0.07687    0.84188    0.55787    1.000
    Co3      Co       0.14310    0.25883    0.96277    1.000
    N5       N        0.12356    0.20741    0.02734    1.000
    O9       O        0.19458    0.27162    0.09397    1.000
    O10      O        0.29311    0.26933    0.09124    1.000
    C91      C        0.07710    0.18640    0.96670    1.000
    C92      C        0.15550    0.19290    0.11520    1.000
    C93      C        0.24929    0.27599    0.12811    1.000
    H59      H        0.05530    0.19620    0.90480    1.000
    C94      C        0.06270    0.15210    0.99360    1.000
    C95      C        0.14050    0.16030    0.14660    1.000
    H60      H        0.18760    0.20690    0.15780    1.000
    C96      C        0.27571    0.28462    0.23310    1.000
    H61      H        0.03060    0.13820    0.95090    1.000
    C97      C        0.09170    0.13940    0.08700    1.000
    H62      H        0.16230    0.15060    0.20850    1.000
    C98      C        0.23467    0.30051    0.27610    1.000
    C99      C        0.33747    0.28298    0.28271    1.000
    H63      H        0.19340    0.30200    0.24270    1.000
    C100     C        0.25567    0.31428    0.36980    1.000
    C101     C        0.35817    0.29680    0.37630    1.000
    H64      H        0.36500    0.27260    0.25340    1.000
    H65      H        0.22830    0.32490    0.39890    1.000
    C102     C        0.31733    0.31223    0.41980    1.000
    H66      H        0.39950    0.29560    0.40950    1.000
    N6       N        0.66546    0.80626    0.89693    1.000
    C103     C        0.62031    0.82628    0.83390    1.000
    C104     C        0.72588    0.81772    0.91930    1.000
    H67      H        0.58000    0.81830    0.81830    1.000
    C105     C        0.63480    0.85850    0.79320    1.000
    C106     C        0.74042    0.84994    0.87990    1.000
    H68      H        0.75650    0.80390    0.96050    1.000
    C107     C        0.69473    0.87024    0.81601    1.000
    H69      H        0.60420    0.87200    0.75100    1.000
    H70      H        0.78070    0.85800    0.89620    1.000
    O11      O        0.56595    0.25307    0.83781    1.000
    C108     C        0.51156    0.24119    0.80680    1.000
    O12      O        0.48765    0.21844    0.84970    1.000
    C109     C        0.06980    0.10220    0.11000    1.000
    C110     C        0.03070    0.08310    0.04950    1.000
    C111     C        0.10400    0.08840    0.20100    1.000
    C112     C        0.00850    0.04860    0.08560    1.000
    C113     C        0.08680    0.05380    0.22900    1.000
    H71      H        0.13850    0.10080    0.24250    1.000
    H72      H        0.97390    0.03620    0.04420    1.000
    C114     C        0.03886    0.03600    0.16730    1.000
    H73      H        0.10870    0.04310    0.29000    1.000
    C115     C        0.92570    0.97900    0.23540    1.000
    C116     C        0.99480    0.01912    0.34680    1.000
    H74      H        0.91590    0.96480    0.17710    1.000
    C117     C        0.88670    0.97912    0.29410    1.000
    C118     C        0.95680    0.01795    0.40680    1.000
    H75      H        0.03250    0.03240    0.36620    1.000
    H76      H        0.85020    0.96460    0.27750    1.000
    H77      H        0.96840    0.03080    0.46720    1.000
    C119     C        0.70749    0.90463    0.76870    1.000
    C120     C        0.66760    0.91600    0.68270    1.000
    C121     C        0.76034    0.92431    0.80990    1.000
    C122     C        0.68050    0.94780    0.63810    1.000
    H78      H        0.63240    0.90270    0.65460    1.000
    H79      H        0.78740    0.91630    0.86730    1.000
    C123     C        0.77293    0.95571    0.76630    1.000
    C124     C        0.73272    0.96748    0.67954    1.000
    H80      H        0.65370    0.95560    0.58030    1.000
    H81      H        0.80810    0.96900    0.79460    1.000
    C125     C        0.78250    0.03028    0.49990    1.000
    C126     C        0.82300    0.03101    0.44340    1.000
    H82      H        0.75710    0.05100    0.50100    1.000
    H83      H        0.82510    0.05200    0.40460    1.000
    C127     C        0.34675    0.33029    0.51640    1.000
    C128     C        0.38565    0.30255    0.58770    1.000
    C129     C        0.36940    0.26811    0.60800    1.000
    C130     C        0.44282    0.31663    0.63672    1.000
    H84      H        0.33120    0.25890    0.57540    1.000
    C131     C        0.41000    0.24675    0.67753    1.000
    C132     C        0.48295    0.29530    0.70620    1.000
    H85      H        0.45400    0.34000    0.62310    1.000
    H86      H        0.39890    0.22340    0.69110    1.000
    C133     C        0.46635    0.26036    0.72560    1.000
    H87      H        0.52100    0.30450    0.73970    1.000
    C134     C        0.30044    0.34683    0.56380    1.000
    F13      F        0.29381    0.32274    0.62942    1.000
    F14      F        0.32577    0.37785    0.60604    1.000
    F15      F        0.24669    0.35419    0.50019    1.000
    C135     C        0.38005    0.35912    0.47155    1.000
    F16      F        0.39641    0.38666    0.53293    1.000
    F17      F        0.33970    0.37281    0.39213    1.000
    F18      F        0.42313    0.34188    0.44213    1.000
    Co4      Co       0.64310    0.75883    0.96277    1.000
    N7       N        0.62356    0.70741    0.02734    1.000
    O13      O        0.69458    0.77162    0.09397    1.000
    O14      O        0.79311    0.76933    0.09124    1.000
    C136     C        0.57710    0.68640    0.96670    1.000
    C137     C        0.65550    0.69290    0.11520    1.000
    C138     C        0.74929    0.77599    0.12811    1.000
    H88      H        0.55530    0.69620    0.90480    1.000
    C139     C        0.56270    0.65210    0.99360    1.000
    C140     C        0.64050    0.66030    0.14660    1.000
    H89      H        0.68760    0.70690    0.15780    1.000
    C141     C        0.77571    0.78462    0.23310    1.000
    H90      H        0.53060    0.63820    0.95090    1.000
    C142     C        0.59170    0.63940    0.08700    1.000
    H91      H        0.66230    0.65060    0.20850    1.000
    C143     C        0.73467    0.80051    0.27610    1.000
    C144     C        0.83747    0.78298    0.28271    1.000
    H92      H        0.69340    0.80200    0.24270    1.000
    C145     C        0.75567    0.81428    0.36980    1.000
    C146     C        0.85817    0.79680    0.37630    1.000
    H93      H        0.86500    0.77260    0.25340    1.000
    H94      H        0.72830    0.82490    0.39890    1.000
    C147     C        0.81733    0.81223    0.41980    1.000
    H95      H        0.89950    0.79560    0.40950    1.000
    N8       N        0.16546    0.30626    0.89693    1.000
    C148     C        0.12031    0.32628    0.83390    1.000
    C149     C        0.22588    0.31772    0.91930    1.000
    H96      H        0.08000    0.31830    0.81830    1.000
    C150     C        0.13480    0.35850    0.79320    1.000
    C151     C        0.24042    0.34994    0.87990    1.000
    H97      H        0.25650    0.30390    0.96050    1.000
    C152     C        0.19473    0.37024    0.81601    1.000
    H98      H        0.10420    0.37200    0.75100    1.000
    H99      H        0.28070    0.35800    0.89620    1.000
    O15      O        0.06595    0.75307    0.83781    1.000
    C153     C        0.01156    0.74119    0.80680    1.000
    O16      O        0.98765    0.71844    0.84970    1.000
    C154     C        0.56980    0.60220    0.11000    1.000
    C155     C        0.53070    0.58310    0.04950    1.000
    C156     C        0.60400    0.58840    0.20100    1.000
    C157     C        0.50850    0.54860    0.08560    1.000
    C158     C        0.58680    0.55380    0.22900    1.000
    H100     H        0.63850    0.60080    0.24250    1.000
    H101     H        0.47390    0.53620    0.04420    1.000
    C159     C        0.53886    0.53600    0.16730    1.000
    H102     H        0.60870    0.54310    0.29000    1.000
    C160     C        0.42570    0.47900    0.23540    1.000
    C161     C        0.49480    0.51912    0.34680    1.000
    H103     H        0.41590    0.46480    0.17710    1.000
    C162     C        0.38670    0.47912    0.29410    1.000
    C163     C        0.45680    0.51795    0.40680    1.000
    H104     H        0.53250    0.53240    0.36620    1.000
    H105     H        0.35020    0.46460    0.27750    1.000
    H106     H        0.46840    0.53080    0.46720    1.000
    C164     C        0.20749    0.40463    0.76870    1.000
    C165     C        0.16760    0.41600    0.68270    1.000
    C166     C        0.26034    0.42431    0.80990    1.000
    C167     C        0.18050    0.44780    0.63810    1.000
    H107     H        0.13240    0.40270    0.65460    1.000
    H108     H        0.28740    0.41630    0.86730    1.000
    C168     C        0.27293    0.45571    0.76630    1.000
    C169     C        0.23272    0.46748    0.67954    1.000
    H109     H        0.15370    0.45560    0.58030    1.000
    H110     H        0.30810    0.46900    0.79460    1.000
    C170     C        0.28250    0.53028    0.49990    1.000
    C171     C        0.32300    0.53101    0.44340    1.000
    H111     H        0.25710    0.55100    0.50100    1.000
    H112     H        0.32510    0.55200    0.40460    1.000
    C172     C        0.84675    0.83029    0.51640    1.000
    C173     C        0.88565    0.80255    0.58770    1.000
    C174     C        0.86940    0.76811    0.60800    1.000
    C175     C        0.94282    0.81663    0.63672    1.000
    H113     H        0.83120    0.75890    0.57540    1.000
    C176     C        0.91000    0.74675    0.67753    1.000
    C177     C        0.98295    0.79530    0.70620    1.000
    H114     H        0.95400    0.84000    0.62310    1.000
    H115     H        0.89890    0.72340    0.69110    1.000
    C178     C        0.96635    0.76036    0.72560    1.000
    H116     H        0.02100    0.80450    0.73970    1.000
    C179     C        0.80044    0.84683    0.56380    1.000
    F19      F        0.79381    0.82274    0.62942    1.000
    F20      F        0.82577    0.87785    0.60604    1.000
    F21      F        0.74669    0.85419    0.50019    1.000
    C180     C        0.88005    0.85912    0.47155    1.000
    F22      F        0.89641    0.88666    0.53293    1.000
    F23      F        0.83970    0.87281    0.39213    1.000
    F24      F        0.92313    0.84188    0.44213    1.000
    Co5      Co       0.14310    0.74117    0.96277    1.000
    N9       N        0.12356    0.79259    0.02734    1.000
    O17      O        0.19458    0.72838    0.09397    1.000
    O18      O        0.29311    0.73067    0.09124    1.000
    C181     C        0.07710    0.81360    0.96670    1.000
    C182     C        0.15550    0.80710    0.11520    1.000
    C183     C        0.24929    0.72401    0.12811    1.000
    H117     H        0.05530    0.80380    0.90480    1.000
    C184     C        0.06270    0.84790    0.99360    1.000
    C185     C        0.14050    0.83970    0.14660    1.000
    H118     H        0.18760    0.79310    0.15780    1.000
    C186     C        0.27571    0.71538    0.23310    1.000
    H119     H        0.03060    0.86180    0.95090    1.000
    C187     C        0.09170    0.86060    0.08700    1.000
    H120     H        0.16230    0.84940    0.20850    1.000
    C188     C        0.23467    0.69949    0.27610    1.000
    C189     C        0.33747    0.71702    0.28271    1.000
    H121     H        0.19340    0.69800    0.24270    1.000
    C190     C        0.25567    0.68572    0.36980    1.000
    C191     C        0.35817    0.70320    0.37630    1.000
    H122     H        0.36500    0.72740    0.25340    1.000
    H123     H        0.22830    0.67510    0.39890    1.000
    C192     C        0.31733    0.68777    0.41980    1.000
    H124     H        0.39950    0.70440    0.40950    1.000
    N10      N        0.66546    0.19374    0.89693    1.000
    C193     C        0.62031    0.17372    0.83390    1.000
    C194     C        0.72588    0.18228    0.91930    1.000
    H125     H        0.58000    0.18170    0.81830    1.000
    C195     C        0.63480    0.14150    0.79320    1.000
    C196     C        0.74042    0.15006    0.87990    1.000
    H126     H        0.75650    0.19610    0.96050    1.000
    C197     C        0.69473    0.12976    0.81601    1.000
    H127     H        0.60420    0.12800    0.75100    1.000
    H128     H        0.78070    0.14200    0.89620    1.000
    O19      O        0.56595    0.74693    0.83781    1.000
    C198     C        0.51156    0.75881    0.80680    1.000
    O20      O        0.48765    0.78156    0.84970    1.000
    C199     C        0.06980    0.89780    0.11000    1.000
    C200     C        0.03070    0.91690    0.04950    1.000
    C201     C        0.10400    0.91160    0.20100    1.000
    C202     C        0.00850    0.95140    0.08560    1.000
    C203     C        0.08680    0.94620    0.22900    1.000
    H129     H        0.13850    0.89920    0.24250    1.000
    H130     H        0.97390    0.96380    0.04420    1.000
    C204     C        0.03886    0.96400    0.16730    1.000
    H131     H        0.10870    0.95690    0.29000    1.000
    C205     C        0.92570    0.02100    0.23540    1.000
    C206     C        0.99480    0.98088    0.34680    1.000
    H132     H        0.91590    0.03520    0.17710    1.000
    C207     C        0.88670    0.02088    0.29410    1.000
    C208     C        0.95680    0.98205    0.40680    1.000
    H133     H        0.03250    0.96760    0.36620    1.000
    H134     H        0.85020    0.03540    0.27750    1.000
    H135     H        0.96840    0.96920    0.46720    1.000
    C209     C        0.70749    0.09537    0.76870    1.000
    C210     C        0.66760    0.08400    0.68270    1.000
    C211     C        0.76034    0.07569    0.80990    1.000
    C212     C        0.68050    0.05220    0.63810    1.000
    H136     H        0.63240    0.09730    0.65460    1.000
    H137     H        0.78740    0.08370    0.86730    1.000
    C213     C        0.77293    0.04429    0.76630    1.000
    C214     C        0.73272    0.03252    0.67954    1.000
    H138     H        0.65370    0.04440    0.58030    1.000
    H139     H        0.80810    0.03100    0.79460    1.000
    C215     C        0.78250    0.96972    0.49990    1.000
    C216     C        0.82300    0.96899    0.44340    1.000
    H140     H        0.75710    0.94900    0.50100    1.000
    H141     H        0.82510    0.94800    0.40460    1.000
    C217     C        0.34675    0.66971    0.51640    1.000
    C218     C        0.38565    0.69745    0.58770    1.000
    C219     C        0.36940    0.73189    0.60800    1.000
    C220     C        0.44282    0.68337    0.63672    1.000
    H142     H        0.33120    0.74110    0.57540    1.000
    C221     C        0.41000    0.75325    0.67753    1.000
    C222     C        0.48295    0.70470    0.70620    1.000
    H143     H        0.45400    0.66000    0.62310    1.000
    H144     H        0.39890    0.77660    0.69110    1.000
    C223     C        0.46635    0.73964    0.72560    1.000
    H145     H        0.52100    0.69550    0.73970    1.000
    C224     C        0.30044    0.65317    0.56380    1.000
    F25      F        0.29381    0.67726    0.62942    1.000
    F26      F        0.32577    0.62215    0.60604    1.000
    F27      F        0.24669    0.64581    0.50019    1.000
    C225     C        0.38005    0.64088    0.47155    1.000
    F28      F        0.39641    0.61334    0.53293    1.000
    F29      F        0.33970    0.62719    0.39213    1.000
    F30      F        0.42313    0.65812    0.44213    1.000
    Co6      Co       0.64310    0.24117    0.96277    1.000
    N11      N        0.62356    0.29259    0.02734    1.000
    O21      O        0.69458    0.22838    0.09397    1.000
    O22      O        0.79311    0.23067    0.09124    1.000
    C226     C        0.57710    0.31360    0.96670    1.000
    C227     C        0.65550    0.30710    0.11520    1.000
    C228     C        0.74929    0.22401    0.12811    1.000
    H146     H        0.55530    0.30380    0.90480    1.000
    C229     C        0.56270    0.34790    0.99360    1.000
    C230     C        0.64050    0.33970    0.14660    1.000
    H147     H        0.68760    0.29310    0.15780    1.000
    C231     C        0.77571    0.21538    0.23310    1.000
    H148     H        0.53060    0.36180    0.95090    1.000
    C232     C        0.59170    0.36060    0.08700    1.000
    H149     H        0.66230    0.34940    0.20850    1.000
    C233     C        0.73467    0.19949    0.27610    1.000
    C234     C        0.83747    0.21702    0.28271    1.000
    H150     H        0.69340    0.19800    0.24270    1.000
    C235     C        0.75567    0.18572    0.36980    1.000
    C236     C        0.85817    0.20320    0.37630    1.000
    H151     H        0.86500    0.22740    0.25340    1.000
    H152     H        0.72830    0.17510    0.39890    1.000
    C237     C        0.81733    0.18777    0.41980    1.000
    H153     H        0.89950    0.20440    0.40950    1.000
    N12      N        0.16546    0.69374    0.89693    1.000
    C238     C        0.12031    0.67372    0.83390    1.000
    C239     C        0.22588    0.68228    0.91930    1.000
    H154     H        0.08000    0.68170    0.81830    1.000
    C240     C        0.13480    0.64150    0.79320    1.000
    C241     C        0.24042    0.65006    0.87990    1.000
    H155     H        0.25650    0.69610    0.96050    1.000
    C242     C        0.19473    0.62976    0.81601    1.000
    H156     H        0.10420    0.62800    0.75100    1.000
    H157     H        0.28070    0.64200    0.89620    1.000
    O23      O        0.06595    0.24693    0.83781    1.000
    C243     C        0.01156    0.25881    0.80680    1.000
    O24      O        0.98765    0.28156    0.84970    1.000
    C244     C        0.56980    0.39780    0.11000    1.000
    C245     C        0.53070    0.41690    0.04950    1.000
    C246     C        0.60400    0.41160    0.20100    1.000
    C247     C        0.50850    0.45140    0.08560    1.000
    C248     C        0.58680    0.44620    0.22900    1.000
    H158     H        0.63850    0.39920    0.24250    1.000
    H159     H        0.47390    0.46380    0.04420    1.000
    C249     C        0.53886    0.46400    0.16730    1.000
    H160     H        0.60870    0.45690    0.29000    1.000
    C250     C        0.42570    0.52100    0.23540    1.000
    C251     C        0.49480    0.48088    0.34680    1.000
    H161     H        0.41590    0.53520    0.17710    1.000
    C252     C        0.38670    0.52088    0.29410    1.000
    C253     C        0.45680    0.48205    0.40680    1.000
    H162     H        0.53250    0.46760    0.36620    1.000
    H163     H        0.35020    0.53540    0.27750    1.000
    H164     H        0.46840    0.46920    0.46720    1.000
    C254     C        0.20749    0.59537    0.76870    1.000
    C255     C        0.16760    0.58400    0.68270    1.000
    C256     C        0.26034    0.57569    0.80990    1.000
    C257     C        0.18050    0.55220    0.63810    1.000
    H165     H        0.13240    0.59730    0.65460    1.000
    H166     H        0.28740    0.58370    0.86730    1.000
    C258     C        0.27293    0.54429    0.76630    1.000
    C259     C        0.23272    0.53252    0.67954    1.000
    H167     H        0.15370    0.54440    0.58030    1.000
    H168     H        0.30810    0.53100    0.79460    1.000
    C260     C        0.28250    0.46972    0.49990    1.000
    C261     C        0.32300    0.46899    0.44340    1.000
    H169     H        0.25710    0.44900    0.50100    1.000
    H170     H        0.32510    0.44800    0.40460    1.000
    C262     C        0.84675    0.16971    0.51640    1.000
    C263     C        0.88565    0.19745    0.58770    1.000
    C264     C        0.86940    0.23189    0.60800    1.000
    C265     C        0.94282    0.18337    0.63672    1.000
    H171     H        0.83120    0.24110    0.57540    1.000
    C266     C        0.91000    0.25325    0.67753    1.000
    C267     C        0.98295    0.20470    0.70620    1.000
    H172     H        0.95400    0.16000    0.62310    1.000
    H173     H        0.89890    0.27660    0.69110    1.000
    C268     C        0.96635    0.23964    0.72560    1.000
    H174     H        0.02100    0.19550    0.73970    1.000
    C269     C        0.80044    0.15317    0.56380    1.000
    F31      F        0.79381    0.17726    0.62942    1.000
    F32      F        0.82577    0.12215    0.60604    1.000
    F33      F        0.74669    0.14581    0.50019    1.000
    C270     C        0.88005    0.14088    0.47155    1.000
    F34      F        0.89641    0.11334    0.53293    1.000
    F35      F        0.83970    0.12719    0.39213    1.000
    F36      F        0.92313    0.15812    0.44213    1.000
    Co7      Co       0.85690    0.74117    0.03723    1.000
    N13      N        0.87644    0.79259    0.97266    1.000
    O25      O        0.80542    0.72838    0.90603    1.000
    O26      O        0.70689    0.73067    0.90876    1.000
    C271     C        0.92290    0.81360    0.03330    1.000
    C272     C        0.84450    0.80710    0.88480    1.000
    C273     C        0.75071    0.72401    0.87189    1.000
    H175     H        0.94470    0.80380    0.09520    1.000
    C274     C        0.93730    0.84790    0.00640    1.000
    C275     C        0.85950    0.83970    0.85340    1.000
    H176     H        0.81240    0.79310    0.84220    1.000
    C276     C        0.72429    0.71538    0.76690    1.000
    H177     H        0.96940    0.86180    0.04910    1.000
    C277     C        0.90830    0.86060    0.91300    1.000
    H178     H        0.83770    0.84940    0.79150    1.000
    C278     C        0.76533    0.69949    0.72390    1.000
    C279     C        0.66253    0.71702    0.71729    1.000
    H179     H        0.80660    0.69800    0.75730    1.000
    C280     C        0.74433    0.68572    0.63020    1.000
    C281     C        0.64183    0.70320    0.62370    1.000
    H180     H        0.63500    0.72740    0.74660    1.000
    H181     H        0.77170    0.67510    0.60110    1.000
    C282     C        0.68267    0.68777    0.58020    1.000
    H182     H        0.60050    0.70440    0.59050    1.000
    N14      N        0.33454    0.19374    0.10307    1.000
    C283     C        0.37969    0.17372    0.16610    1.000
    C284     C        0.27412    0.18228    0.08070    1.000
    H183     H        0.42000    0.18170    0.18170    1.000
    C285     C        0.36520    0.14150    0.20680    1.000
    C286     C        0.25958    0.15006    0.12010    1.000
    H184     H        0.24350    0.19610    0.03950    1.000
    C287     C        0.30527    0.12976    0.18399    1.000
    H185     H        0.39580    0.12800    0.24900    1.000
    H186     H        0.21930    0.14200    0.10380    1.000
    O27      O        0.43405    0.74693    0.16219    1.000
    C288     C        0.48844    0.75881    0.19320    1.000
    O28      O        0.51235    0.78156    0.15030    1.000
    C289     C        0.93020    0.89780    0.89000    1.000
    C290     C        0.96930    0.91690    0.95050    1.000
    C291     C        0.89600    0.91160    0.79900    1.000
    C292     C        0.99150    0.95140    0.91440    1.000
    C293     C        0.91320    0.94620    0.77100    1.000
    H187     H        0.86150    0.89920    0.75750    1.000
    H188     H        0.02610    0.96380    0.95580    1.000
    C294     C        0.96114    0.96400    0.83270    1.000
    H189     H        0.89130    0.95690    0.71000    1.000
    C295     C        0.07430    0.02100    0.76460    1.000
    C296     C        0.00520    0.98088    0.65320    1.000
    H190     H        0.08410    0.03520    0.82290    1.000
    C297     C        0.11330    0.02088    0.70590    1.000
    C298     C        0.04320    0.98205    0.59320    1.000
    H191     H        0.96750    0.96760    0.63380    1.000
    H192     H        0.14980    0.03540    0.72250    1.000
    H193     H        0.03160    0.96920    0.53280    1.000
    C299     C        0.29251    0.09537    0.23130    1.000
    C300     C        0.33240    0.08400    0.31730    1.000
    C301     C        0.23966    0.07569    0.19010    1.000
    C302     C        0.31950    0.05220    0.36190    1.000
    H194     H        0.36760    0.09730    0.34540    1.000
    H195     H        0.21260    0.08370    0.13270    1.000
    C303     C        0.22707    0.04429    0.23370    1.000
    C304     C        0.26728    0.03252    0.32046    1.000
    H196     H        0.34630    0.04440    0.41970    1.000
    H197     H        0.19190    0.03100    0.20540    1.000
    C305     C        0.21750    0.96972    0.50010    1.000
    C306     C        0.17700    0.96899    0.55660    1.000
    H198     H        0.24290    0.94900    0.49900    1.000
    H199     H        0.17490    0.94800    0.59540    1.000
    C307     C        0.65325    0.66971    0.48360    1.000
    C308     C        0.61435    0.69745    0.41230    1.000
    C309     C        0.63060    0.73189    0.39200    1.000
    C310     C        0.55718    0.68337    0.36328    1.000
    H200     H        0.66880    0.74110    0.42460    1.000
    C311     C        0.59000    0.75325    0.32247    1.000
    C312     C        0.51705    0.70470    0.29380    1.000
    H201     H        0.54600    0.66000    0.37690    1.000
    H202     H        0.60110    0.77660    0.30890    1.000
    C313     C        0.53365    0.73964    0.27440    1.000
    H203     H        0.47900    0.69550    0.26030    1.000
    C314     C        0.69956    0.65317    0.43620    1.000
    F37      F        0.70619    0.67726    0.37058    1.000
    F38      F        0.67423    0.62215    0.39396    1.000
    F39      F        0.75331    0.64581    0.49981    1.000
    C315     C        0.61995    0.64088    0.52845    1.000
    F40      F        0.60359    0.61334    0.46707    1.000
    F41      F        0.66030    0.62719    0.60787    1.000
    F42      F        0.57687    0.65812    0.55787    1.000
    Co8      Co       0.35690    0.24117    0.03723    1.000
    N15      N        0.37644    0.29259    0.97266    1.000
    O29      O        0.30542    0.22838    0.90603    1.000
    O30      O        0.20689    0.23067    0.90876    1.000
    C316     C        0.42290    0.31360    0.03330    1.000
    C317     C        0.34450    0.30710    0.88480    1.000
    C318     C        0.25071    0.22401    0.87189    1.000
    H204     H        0.44470    0.30380    0.09520    1.000
    C319     C        0.43730    0.34790    0.00640    1.000
    C320     C        0.35950    0.33970    0.85340    1.000
    H205     H        0.31240    0.29310    0.84220    1.000
    C321     C        0.22429    0.21538    0.76690    1.000
    H206     H        0.46940    0.36180    0.04910    1.000
    C322     C        0.40830    0.36060    0.91300    1.000
    H207     H        0.33770    0.34940    0.79150    1.000
    C323     C        0.26533    0.19949    0.72390    1.000
    C324     C        0.16253    0.21702    0.71729    1.000
    H208     H        0.30660    0.19800    0.75730    1.000
    C325     C        0.24433    0.18572    0.63020    1.000
    C326     C        0.14183    0.20320    0.62370    1.000
    H209     H        0.13500    0.22740    0.74660    1.000
    H210     H        0.27170    0.17510    0.60110    1.000
    C327     C        0.18267    0.18777    0.58020    1.000
    H211     H        0.10050    0.20440    0.59050    1.000
    N16      N        0.83454    0.69374    0.10307    1.000
    C328     C        0.87969    0.67372    0.16610    1.000
    C329     C        0.77412    0.68228    0.08070    1.000
    H212     H        0.92000    0.68170    0.18170    1.000
    C330     C        0.86520    0.64150    0.20680    1.000
    C331     C        0.75958    0.65006    0.12010    1.000
    H213     H        0.74350    0.69610    0.03950    1.000
    C332     C        0.80527    0.62976    0.18399    1.000
    H214     H        0.89580    0.62800    0.24900    1.000
    H215     H        0.71930    0.64200    0.10380    1.000
    O31      O        0.93405    0.24693    0.16219    1.000
    C333     C        0.98844    0.25881    0.19320    1.000
    O32      O        0.01235    0.28156    0.15030    1.000
    C334     C        0.43020    0.39780    0.89000    1.000
    C335     C        0.46930    0.41690    0.95050    1.000
    C336     C        0.39600    0.41160    0.79900    1.000
    C337     C        0.49150    0.45140    0.91440    1.000
    C338     C        0.41320    0.44620    0.77100    1.000
    H216     H        0.36150    0.39920    0.75750    1.000
    H217     H        0.52610    0.46380    0.95580    1.000
    C339     C        0.46114    0.46400    0.83270    1.000
    H218     H        0.39130    0.45690    0.71000    1.000
    C340     C        0.57430    0.52100    0.76460    1.000
    C341     C        0.50520    0.48088    0.65320    1.000
    H219     H        0.58410    0.53520    0.82290    1.000
    C342     C        0.61330    0.52088    0.70590    1.000
    C343     C        0.54320    0.48205    0.59320    1.000
    H220     H        0.46750    0.46760    0.63380    1.000
    H221     H        0.64980    0.53540    0.72250    1.000
    H222     H        0.53160    0.46920    0.53280    1.000
    C344     C        0.79251    0.59537    0.23130    1.000
    C345     C        0.83240    0.58400    0.31730    1.000
    C346     C        0.73966    0.57569    0.19010    1.000
    C347     C        0.81950    0.55220    0.36190    1.000
    H223     H        0.86760    0.59730    0.34540    1.000
    H224     H        0.71260    0.58370    0.13270    1.000
    C348     C        0.72707    0.54429    0.23370    1.000
    C349     C        0.76728    0.53252    0.32046    1.000
    H225     H        0.84630    0.54440    0.41970    1.000
    H226     H        0.69190    0.53100    0.20540    1.000
    C350     C        0.71750    0.46972    0.50010    1.000
    C351     C        0.67700    0.46899    0.55660    1.000
    H227     H        0.74290    0.44900    0.49900    1.000
    H228     H        0.67490    0.44800    0.59540    1.000
    C352     C        0.15325    0.16971    0.48360    1.000
    C353     C        0.11435    0.19745    0.41230    1.000
    C354     C        0.13060    0.23189    0.39200    1.000
    C355     C        0.05718    0.18337    0.36328    1.000
    H229     H        0.16880    0.24110    0.42460    1.000
    C356     C        0.09000    0.25325    0.32247    1.000
    C357     C        0.01705    0.20470    0.29380    1.000
    H230     H        0.04600    0.16000    0.37690    1.000
    H231     H        0.10110    0.27660    0.30890    1.000
    C358     C        0.03365    0.23964    0.27440    1.000
    H232     H        0.97900    0.19550    0.26030    1.000
    C359     C        0.19956    0.15317    0.43620    1.000
    F43      F        0.20619    0.17726    0.37058    1.000
    F44      F        0.17423    0.12215    0.39396    1.000
    F45      F        0.25331    0.14581    0.49981    1.000
    C360     C        0.11995    0.14088    0.52845    1.000
    F46      F        0.10359    0.11334    0.46707    1.000
    F47      F        0.16030    0.12719    0.60787    1.000
    F48      F        0.07687    0.15812    0.55787    1.000
    N17      N        0.98145    0.00000    0.80380    1.000
    C361     C        0.01988    0.00000    0.73870    1.000
    C362     C        0.09738    0.00000    0.62030    1.000
    N18      N        0.25710    0.00000    0.37360    1.000
    C363     C        0.21919    0.00000    0.44190    1.000
    C364     C        0.14121    0.00000    0.55900    1.000
    N19      N        0.48145    0.50000    0.80380    1.000
    C365     C        0.51988    0.50000    0.73870    1.000
    C366     C        0.59738    0.50000    0.62030    1.000
    N20      N        0.75710    0.50000    0.37360    1.000
    C367     C        0.71919    0.50000    0.44190    1.000
    C368     C        0.64121    0.50000    0.55900    1.000
    N21      N        0.01855    0.00000    0.19620    1.000
    C369     C        0.98012    0.00000    0.26130    1.000
    C370     C        0.90262    0.00000    0.37970    1.000
    N22      N        0.74290    0.00000    0.62640    1.000
    C371     C        0.78081    0.00000    0.55810    1.000
    C372     C        0.85879    0.00000    0.44100    1.000
    N23      N        0.51855    0.50000    0.19620    1.000
    C373     C        0.48012    0.50000    0.26130    1.000
    C374     C        0.40262    0.50000    0.37970    1.000
    N24      N        0.24290    0.50000    0.62640    1.000
    C375     C        0.28081    0.50000    0.55810    1.000
    C376     C        0.35879    0.50000    0.44100    1.000
