# CIF file generated by openbabel 3.1.0, see https://openbabel.org
data_I
_chemical_name_common 'EXEXAH_clean'
_cell_length_a 7.1635
_cell_length_b 18.607
_cell_length_c 18.607
_cell_angle_alpha 90
_cell_angle_beta 90
_cell_angle_gamma 90
_space_group_name_H-M_alt 'P 1'
_space_group_name_Hall 'P 1'
loop_
    _symmetry_equiv_pos_as_xyz
    x,y,z
loop_
    _atom_site_label
    _atom_site_type_symbol
    _atom_site_fract_x
    _atom_site_fract_y
    _atom_site_fract_z
    _atom_site_occupancy
    Co1      Co       0.75000    0.25000    0.75000    1.000
    Co2      Co       0.25000    0.75000    0.25000    1.000
    Co3      Co       0.75000    0.75000    0.25000    1.000
    Co4      Co       0.25000    0.25000    0.75000    1.000
    H1       H        0.91630    0.39180    0.67840    1.000
    H2       H        0.81640    0.46270    0.64840    1.000
    H3       H        0.79290    0.44050    0.73100    1.000
    H4       H        0.22930    0.47640    0.56230    1.000
    H5       H        0.91630    0.10820    0.82160    1.000
    H6       H        0.81640    0.03730    0.85160    1.000
    H7       H        0.79290    0.05950    0.76900    1.000
    H8       H        0.22930    0.02360    0.93770    1.000
    H9       H        0.41630    0.82160    0.39180    1.000
    H10      H        0.31640    0.85160    0.46270    1.000
    H11      H        0.29290    0.76900    0.44050    1.000
    H12      H        0.72930    0.93770    0.47640    1.000
    H13      H        0.41630    0.67840    0.10820    1.000
    H14      H        0.31640    0.64840    0.03730    1.000
    H15      H        0.29290    0.73100    0.05950    1.000
    H16      H        0.72930    0.56230    0.02360    1.000
    H17      H        0.58370    0.60820    0.17840    1.000
    H18      H        0.68360    0.53730    0.14840    1.000
    H19      H        0.70710    0.55950    0.23100    1.000
    H20      H        0.27070    0.52360    0.06230    1.000
    H21      H        0.58370    0.89180    0.32160    1.000
    H22      H        0.68360    0.96270    0.35160    1.000
    H23      H        0.70710    0.94050    0.26900    1.000
    H24      H        0.27070    0.97640    0.43770    1.000
    H25      H        0.08370    0.17840    0.89180    1.000
    H26      H        0.18360    0.14840    0.96270    1.000
    H27      H        0.20710    0.23100    0.94050    1.000
    H28      H        0.77070    0.06230    0.97640    1.000
    H29      H        0.08370    0.32160    0.60820    1.000
    H30      H        0.18360    0.35160    0.53730    1.000
    H31      H        0.20710    0.26900    0.55950    1.000
    H32      H        0.77070    0.43770    0.52360    1.000
    H33      H        0.08370    0.60820    0.32160    1.000
    H34      H        0.18360    0.53730    0.35160    1.000
    H35      H        0.20710    0.55950    0.26900    1.000
    H36      H        0.77070    0.52360    0.43770    1.000
    H37      H        0.08370    0.89180    0.17840    1.000
    H38      H        0.18360    0.96270    0.14840    1.000
    H39      H        0.20710    0.94050    0.23100    1.000
    H40      H        0.77070    0.97640    0.06230    1.000
    H41      H        0.58370    0.17840    0.60820    1.000
    H42      H        0.68360    0.14840    0.53730    1.000
    H43      H        0.70710    0.23100    0.55950    1.000
    H44      H        0.27070    0.06230    0.52360    1.000
    H45      H        0.58370    0.32160    0.89180    1.000
    H46      H        0.68360    0.35160    0.96270    1.000
    H47      H        0.70710    0.26900    0.94050    1.000
    H48      H        0.27070    0.43770    0.97640    1.000
    H49      H        0.41630    0.39180    0.82160    1.000
    H50      H        0.31640    0.46270    0.85160    1.000
    H51      H        0.29290    0.44050    0.76900    1.000
    H52      H        0.72930    0.47640    0.93770    1.000
    H53      H        0.41630    0.10820    0.67840    1.000
    H54      H        0.31640    0.03730    0.64840    1.000
    H55      H        0.29290    0.05950    0.73100    1.000
    H56      H        0.72930    0.02360    0.56230    1.000
    H57      H        0.91630    0.82160    0.10820    1.000
    H58      H        0.81640    0.85160    0.03730    1.000
    H59      H        0.79290    0.76900    0.05950    1.000
    H60      H        0.22930    0.93770    0.02360    1.000
    H61      H        0.91630    0.67840    0.39180    1.000
    H62      H        0.81640    0.64840    0.46270    1.000
    H63      H        0.79290    0.73100    0.44050    1.000
    H64      H        0.22930    0.56230    0.47640    1.000
    C1       C        0.80490    0.42220    0.68180    1.000
    C2       C        0.63160    0.37790    0.66260    1.000
    C3       C        0.34160    0.48580    0.53680    1.000
    C4       C        0.80490    0.07780    0.81820    1.000
    C5       C        0.63160    0.12210    0.83740    1.000
    C6       C        0.34160    0.01420    0.96320    1.000
    C7       C        0.30490    0.81820    0.42220    1.000
    C8       C        0.13160    0.83740    0.37790    1.000
    C9       C        0.84160    0.96320    0.48580    1.000
    C10      C        0.30490    0.68180    0.07780    1.000
    C11      C        0.13160    0.66260    0.12210    1.000
    C12      C        0.84160    0.53680    0.01420    1.000
    C13      C        0.69510    0.57780    0.18180    1.000
    C14      C        0.86840    0.62210    0.16260    1.000
    C15      C        0.15840    0.51420    0.03680    1.000
    C16      C        0.69510    0.92220    0.31820    1.000
    C17      C        0.86840    0.87790    0.33740    1.000
    C18      C        0.15840    0.98580    0.46320    1.000
    C19      C        0.19510    0.18180    0.92220    1.000
    C20      C        0.36840    0.16260    0.87790    1.000
    C21      C        0.65840    0.03680    0.98580    1.000
    C22      C        0.19510    0.31820    0.57780    1.000
    C23      C        0.36840    0.33740    0.62210    1.000
    C24      C        0.65840    0.46320    0.51420    1.000
    C25      C        0.19510    0.57780    0.31820    1.000
    C26      C        0.36840    0.62210    0.33740    1.000
    C27      C        0.65840    0.51420    0.46320    1.000
    C28      C        0.19510    0.92220    0.18180    1.000
    C29      C        0.36840    0.87790    0.16260    1.000
    C30      C        0.65840    0.98580    0.03680    1.000
    C31      C        0.69510    0.18180    0.57780    1.000
    C32      C        0.86840    0.16260    0.62210    1.000
    C33      C        0.15840    0.03680    0.51420    1.000
    C34      C        0.69510    0.31820    0.92220    1.000
    C35      C        0.86840    0.33740    0.87790    1.000
    C36      C        0.15840    0.46320    0.98580    1.000
    C37      C        0.30490    0.42220    0.81820    1.000
    C38      C        0.13160    0.37790    0.83740    1.000
    C39      C        0.84160    0.48580    0.96320    1.000
    C40      C        0.30490    0.07780    0.68180    1.000
    C41      C        0.13160    0.12210    0.66260    1.000
    C42      C        0.84160    0.01420    0.53680    1.000
    C43      C        0.80490    0.81820    0.07780    1.000
    C44      C        0.63160    0.83740    0.12210    1.000
    C45      C        0.34160    0.96320    0.01420    1.000
    C46      C        0.80490    0.68180    0.42220    1.000
    C47      C        0.63160    0.66260    0.37790    1.000
    C48      C        0.34160    0.53680    0.48580    1.000
    C49      C        0.50000    0.39010    0.60990    1.000
    C50      C        0.50000    0.44640    0.55360    1.000
    C51      C        0.50000    0.10990    0.89010    1.000
    C52      C        0.50000    0.05360    0.94640    1.000
    C53      C        0.00000    0.89010    0.39010    1.000
    C54      C        0.00000    0.94640    0.44640    1.000
    C55      C        0.00000    0.60990    0.10990    1.000
    C56      C        0.00000    0.55360    0.05360    1.000
    C57      C        0.50000    0.60990    0.39010    1.000
    C58      C        0.50000    0.55360    0.44640    1.000
    C59      C        0.50000    0.89010    0.10990    1.000
    C60      C        0.50000    0.94640    0.05360    1.000
    C61      C        0.00000    0.10990    0.60990    1.000
    C62      C        0.00000    0.05360    0.55360    1.000
    C63      C        0.00000    0.39010    0.89010    1.000
    C64      C        0.00000    0.44640    0.94640    1.000
    N1       N        0.58380    0.32220    0.70360    1.000
    N2       N        0.58380    0.17780    0.79640    1.000
    N3       N        0.08380    0.79640    0.32220    1.000
    N4       N        0.08380    0.70360    0.17780    1.000
    N5       N        0.91620    0.67780    0.20360    1.000
    N6       N        0.91620    0.82220    0.29640    1.000
    N7       N        0.41620    0.20360    0.82220    1.000
    N8       N        0.41620    0.29640    0.67780    1.000
    N9       N        0.41620    0.67780    0.29640    1.000
    N10      N        0.41620    0.82220    0.20360    1.000
    N11      N        0.91620    0.20360    0.67780    1.000
    N12      N        0.91620    0.29640    0.82220    1.000
    N13      N        0.08380    0.32220    0.79640    1.000
    N14      N        0.08380    0.17780    0.70360    1.000
    N15      N        0.58380    0.79640    0.17780    1.000
    N16      N        0.58380    0.70360    0.32220    1.000
