# CIF file generated by openbabel 3.1.0, see https://openbabel.org
data_I
_chemical_name_common 'image0'
_cell_length_a 9.6814
_cell_length_b 9.6568
_cell_length_c 9.7618
_cell_angle_alpha 90
_cell_angle_beta 102.9
_cell_angle_gamma 90
_space_group_name_H-M_alt 'P 1'
_space_group_name_Hall 'P 1'
loop_
    _symmetry_equiv_pos_as_xyz
    x,y,z
loop_
    _atom_site_label
    _atom_site_type_symbol
    _atom_site_fract_x
    _atom_site_fract_y
    _atom_site_fract_z
    _atom_site_occupancy
    P1       P        0.20723    0.18548    0.86704    1.000
    P2       P        0.29730    0.53330    0.14960    1.000
    Ga1      Ga       0.39815    0.23219    0.18442    1.000
    Ga2      Ga       0.38674    0.45786    0.87063    1.000
    O1       O        0.50020    0.35880    0.05780    1.000
    O2       O        0.28730    0.38950    0.21640    1.000
    O3       O        0.26170    0.51690    0.98720    1.000
    O4       O        0.18760    0.62900    0.18610    1.000
    O5       O        0.26090    0.16960    0.02480    1.000
    O6       O        0.29520    0.28850    0.80360    1.000
    O7       O        0.05170    0.22890    0.84060    1.000
    O8       O        0.44880    0.59050    0.20060    1.000
    O9       O        0.22020    0.04240    0.79820    1.000
    H1       H        0.56850    0.29290    0.02880    1.000
    P3       P        0.29277    0.68548    0.63296    1.000
    P4       P        0.20270    0.03330    0.35040    1.000
    Ga3      Ga       0.10185    0.73219    0.31558    1.000
    Ga4      Ga       0.11326    0.95786    0.62937    1.000
    O10      O        0.99980    0.85880    0.44220    1.000
    O11      O        0.21270    0.88950    0.28360    1.000
    O12      O        0.23830    0.01690    0.51280    1.000
    O13      O        0.31240    0.12900    0.31390    1.000
    O14      O        0.23910    0.66960    0.47520    1.000
    O15      O        0.20480    0.78850    0.69640    1.000
    O16      O        0.44830    0.72890    0.65940    1.000
    O17      O        0.05120    0.09050    0.29940    1.000
    O18      O        0.27980    0.54240    0.70180    1.000
    H2       H        0.93150    0.79290    0.47120    1.000
    P5       P        0.79277    0.81452    0.13296    1.000
    P6       P        0.70270    0.46670    0.85040    1.000
    Ga5      Ga       0.60185    0.76781    0.81558    1.000
    Ga6      Ga       0.61326    0.54214    0.12937    1.000
    O19      O        0.49980    0.64120    0.94220    1.000
    O20      O        0.71270    0.61050    0.78360    1.000
    O21      O        0.73830    0.48310    0.01280    1.000
    O22      O        0.81240    0.37100    0.81390    1.000
    O23      O        0.73910    0.83040    0.97520    1.000
    O24      O        0.70480    0.71150    0.19640    1.000
    O25      O        0.94830    0.77110    0.15940    1.000
    O26      O        0.55120    0.40950    0.79940    1.000
    O27      O        0.77980    0.95760    0.20180    1.000
    H3       H        0.43150    0.70710    0.97120    1.000
    P7       P        0.70723    0.31452    0.36704    1.000
    P8       P        0.79730    0.96670    0.64960    1.000
    Ga7      Ga       0.89815    0.26781    0.68442    1.000
    Ga8      Ga       0.88674    0.04214    0.37063    1.000
    O28      O        0.00020    0.14120    0.55780    1.000
    O29      O        0.78730    0.11050    0.71640    1.000
    O30      O        0.76170    0.98310    0.48720    1.000
    O31      O        0.68760    0.87100    0.68610    1.000
    O32      O        0.76090    0.33040    0.52480    1.000
    O33      O        0.79520    0.21150    0.30360    1.000
    O34      O        0.55170    0.27110    0.34060    1.000
    O35      O        0.94880    0.90950    0.70060    1.000
    O36      O        0.72020    0.45760    0.29820    1.000
    H4       H        0.06850    0.20710    0.52880    1.000
