# CIF file generated by openbabel 3.1.0, see https://openbabel.org
data_I
_chemical_name_common 'image0'
_cell_length_a 48.7999
_cell_length_b 48.7999
_cell_length_c 8.4529
_cell_angle_alpha 90
_cell_angle_beta 90
_cell_angle_gamma 120
_space_group_name_H-M_alt 'P 1'
_space_group_name_Hall 'P 1'
loop_
    _symmetry_equiv_pos_as_xyz
    x,y,z
loop_
    _atom_site_label
    _atom_site_type_symbol
    _atom_site_fract_x
    _atom_site_fract_y
    _atom_site_fract_z
    _atom_site_occupancy
    K1       K        0.82706    0.07445    0.43158    1.000
    Eu1      Eu       0.82765    0.15298    0.11809    1.000
    S1       S        0.84792    0.09178    0.06418    1.000
    S2       S        0.65891    0.91032    0.89880    1.000
    O1       O        0.82728    0.13320    0.85960    1.000
    O2       O        0.82386    0.11444    0.62180    1.000
    O3       O        0.84006    0.11159    0.16300    1.000
    O4       O        0.85410    0.07122    0.16470    1.000
    O5       O        0.87188    0.10960    0.94960    1.000
    O6       O        0.69302    0.87877    0.28600    1.000
    O7       O        0.67663    0.86058    0.04840    1.000
    O8       O        0.63836    0.89452    0.03120    1.000
    O9       O        0.65993    0.88840    0.78420    1.000
    O10      O        0.65419    0.93422    0.82190    1.000
    C1       C        0.80321    0.07694    0.82670    1.000
    C2       C        0.81253    0.06626    0.95690    1.000
    C3       C        0.79487    0.03490    0.00520    1.000
    H1       H        0.80130    0.02830    0.09380    1.000
    C4       C        0.76818    0.01347    0.92510    1.000
    C5       C        0.76037    0.02343    0.79140    1.000
    H2       H        0.74340    0.00880    0.73110    1.000
    C6       C        0.77718    0.05511    0.74160    1.000
    H3       H        0.77080    0.06140    0.65150    1.000
    C7       C        0.81949    0.11027    0.76480    1.000
    C8       C        0.74842    0.98050    0.98040    1.000
    C9       C        0.76054    0.96567    0.07730    1.000
    H4       H        0.78180    0.97650    0.10540    1.000
    C10      C        0.74136    0.93546    0.13090    1.000
    H5       H        0.74930    0.92700    0.20390    1.000
    C11      C        0.71039    0.91721    0.07910    1.000
    C12      C        0.69822    0.93020    0.97950    1.000
    C13      C        0.71706    0.96225    0.93390    1.000
    H6       H        0.70810    0.97140    0.87090    1.000
    C14      C        0.69184    0.88328    0.14000    1.000
    K2       K        0.49373    0.40778    0.76491    1.000
    Eu2      Eu       0.49432    0.48631    0.45142    1.000
    S3       S        0.51459    0.42511    0.39751    1.000
    S4       S        0.32558    0.24365    0.23213    1.000
    O11      O        0.49395    0.46653    0.19293    1.000
    O12      O        0.49053    0.44777    0.95513    1.000
    O13      O        0.50673    0.44492    0.49633    1.000
    O14      O        0.52077    0.40455    0.49803    1.000
    O15      O        0.53855    0.44293    0.28293    1.000
    O16      O        0.35969    0.21210    0.61933    1.000
    O17      O        0.34330    0.19391    0.38173    1.000
    O18      O        0.30503    0.22785    0.36453    1.000
    O19      O        0.32660    0.22173    0.11753    1.000
    O20      O        0.32086    0.26755    0.15523    1.000
    C15      C        0.46988    0.41027    0.16003    1.000
    C16      C        0.47920    0.39959    0.29023    1.000
    C17      C        0.46154    0.36823    0.33853    1.000
    H7       H        0.46797    0.36163    0.42713    1.000
    C18      C        0.43485    0.34680    0.25843    1.000
    C19      C        0.42704    0.35676    0.12473    1.000
    H8       H        0.41007    0.34213    0.06443    1.000
    C20      C        0.44385    0.38844    0.07493    1.000
    H9       H        0.43747    0.39473    0.98483    1.000
    C21      C        0.48616    0.44360    0.09813    1.000
    C22      C        0.41509    0.31383    0.31373    1.000
    C23      C        0.42721    0.29900    0.41063    1.000
    H10      H        0.44847    0.30983    0.43873    1.000
    C24      C        0.40803    0.26879    0.46423    1.000
    H11      H        0.41597    0.26033    0.53723    1.000
    C25      C        0.37706    0.25054    0.41243    1.000
    C26      C        0.36489    0.26353    0.31283    1.000
    C27      C        0.38373    0.29558    0.26723    1.000
    H12      H        0.37477    0.30473    0.20423    1.000
    C28      C        0.35851    0.21661    0.47333    1.000
    K3       K        0.16039    0.74112    0.09825    1.000
    Eu3      Eu       0.16098    0.81965    0.78476    1.000
    S5       S        0.18125    0.75845    0.73085    1.000
    S6       S        0.99224    0.57699    0.56547    1.000
    O21      O        0.16061    0.79987    0.52627    1.000
    O22      O        0.15719    0.78111    0.28847    1.000
    O23      O        0.17339    0.77826    0.82967    1.000
    O24      O        0.18743    0.73789    0.83137    1.000
    O25      O        0.20521    0.77627    0.61627    1.000
    O26      O        0.02635    0.54544    0.95267    1.000
    O27      O        0.00996    0.52725    0.71507    1.000
    O28      O        0.97169    0.56119    0.69787    1.000
    O29      O        0.99326    0.55507    0.45087    1.000
    O30      O        0.98752    0.60089    0.48857    1.000
    C29      C        0.13654    0.74361    0.49337    1.000
    C30      C        0.14586    0.73293    0.62357    1.000
    C31      C        0.12820    0.70157    0.67187    1.000
    H13      H        0.13463    0.69497    0.76047    1.000
    C32      C        0.10151    0.68014    0.59177    1.000
    C33      C        0.09370    0.69010    0.45807    1.000
    H14      H        0.07673    0.67547    0.39777    1.000
    C34      C        0.11051    0.72178    0.40827    1.000
    H15      H        0.10413    0.72807    0.31817    1.000
    C35      C        0.15282    0.77694    0.43147    1.000
    C36      C        0.08175    0.64717    0.64707    1.000
    C37      C        0.09387    0.63234    0.74397    1.000
    H16      H        0.11513    0.64317    0.77207    1.000
    C38      C        0.07469    0.60213    0.79757    1.000
    H17      H        0.08263    0.59367    0.87057    1.000
    C39      C        0.04372    0.58388    0.74577    1.000
    C40      C        0.03155    0.59687    0.64617    1.000
    C41      C        0.05039    0.62892    0.60057    1.000
    H18      H        0.04143    0.63807    0.53757    1.000
    C42      C        0.02517    0.54995    0.80667    1.000
    K4       K        0.92555    0.75261    0.43158    1.000
    Eu4      Eu       0.84702    0.67467    0.11809    1.000
    S7       S        0.90822    0.75614    0.06418    1.000
    S8       S        0.08968    0.74859    0.89880    1.000
    O31      O        0.86680    0.69408    0.85960    1.000
    O32      O        0.88556    0.70942    0.62180    1.000
    O33      O        0.88841    0.72847    0.16300    1.000
    O34      O        0.92878    0.78288    0.16470    1.000
    O35      O        0.89040    0.76228    0.94960    1.000
    O36      O        0.12123    0.81425    0.28600    1.000
    O37      O        0.13942    0.81605    0.04840    1.000
    O38      O        0.10548    0.74384    0.03120    1.000
    O39      O        0.11160    0.77153    0.78420    1.000
    O40      O        0.06578    0.71997    0.82190    1.000
    C43      C        0.92306    0.72627    0.82670    1.000
    C44      C        0.93374    0.74627    0.95690    1.000
    C45      C        0.96510    0.75997    0.00520    1.000
    H19      H        0.97170    0.77300    0.09380    1.000
    C46      C        0.98653    0.75471    0.92510    1.000
    C47      C        0.97657    0.73694    0.79140    1.000
    H20      H        0.99120    0.73460    0.73110    1.000
    C48      C        0.94489    0.72207    0.74160    1.000
    H21      H        0.93860    0.70940    0.65150    1.000
    C49      C        0.88973    0.70922    0.76480    1.000
    C50      C        0.01950    0.76792    0.98040    1.000
    C51      C        0.03433    0.79487    0.07730    1.000
    H22      H        0.02350    0.80530    0.10540    1.000
    C52      C        0.06454    0.80590    0.13090    1.000
    H23      H        0.07300    0.82230    0.20390    1.000
    C53      C        0.08279    0.79318    0.07910    1.000
    C54      C        0.06980    0.76802    0.97950    1.000
    C55      C        0.03775    0.75481    0.93390    1.000
    H24      H        0.02860    0.73670    0.87090    1.000
    C56      C        0.11672    0.80856    0.14000    1.000
    K5       K        0.59222    0.08594    0.76491    1.000
    Eu5      Eu       0.51369    0.00800    0.45142    1.000
    S9       S        0.57489    0.08947    0.39751    1.000
    S10      S        0.75635    0.08192    0.23213    1.000
    O41      O        0.53347    0.02741    0.19293    1.000
    O42      O        0.55223    0.04275    0.95513    1.000
    O43      O        0.55508    0.06180    0.49633    1.000
    O44      O        0.59545    0.11621    0.49803    1.000
    O45      O        0.55707    0.09561    0.28293    1.000
    O46      O        0.78790    0.14758    0.61933    1.000
    O47      O        0.80609    0.14938    0.38173    1.000
    O48      O        0.77215    0.07717    0.36453    1.000
    O49      O        0.77827    0.10486    0.11753    1.000
    O50      O        0.73245    0.05330    0.15523    1.000
    C57      C        0.58973    0.05960    0.16003    1.000
    C58      C        0.60041    0.07960    0.29023    1.000
    C59      C        0.63177    0.09330    0.33853    1.000
    H25      H        0.63837    0.10633    0.42713    1.000
    C60      C        0.65320    0.08804    0.25843    1.000
    C61      C        0.64324    0.07027    0.12473    1.000
    H26      H        0.65787    0.06793    0.06443    1.000
    C62      C        0.61156    0.05540    0.07493    1.000
    H27      H        0.60527    0.04273    0.98483    1.000
    C63      C        0.55640    0.04255    0.09813    1.000
    C64      C        0.68617    0.10125    0.31373    1.000
    C65      C        0.70100    0.12820    0.41063    1.000
    H28      H        0.69017    0.13863    0.43873    1.000
    C66      C        0.73121    0.13923    0.46423    1.000
    H29      H        0.73967    0.15563    0.53723    1.000
    C67      C        0.74946    0.12651    0.41243    1.000
    C68      C        0.73647    0.10135    0.31283    1.000
    C69      C        0.70442    0.08814    0.26723    1.000
    H30      H        0.69527    0.07003    0.20423    1.000
    C70      C        0.78339    0.14189    0.47333    1.000
    K6       K        0.25888    0.41928    0.09825    1.000
    Eu6      Eu       0.18035    0.34134    0.78476    1.000
    S11      S        0.24155    0.42281    0.73085    1.000
    S12      S        0.42301    0.41526    0.56547    1.000
    O51      O        0.20013    0.36075    0.52627    1.000
    O52      O        0.21889    0.37609    0.28847    1.000
    O53      O        0.22174    0.39514    0.82967    1.000
    O54      O        0.26211    0.44955    0.83137    1.000
    O55      O        0.22373    0.42895    0.61627    1.000
    O56      O        0.45456    0.48092    0.95267    1.000
    O57      O        0.47275    0.48272    0.71507    1.000
    O58      O        0.43881    0.41051    0.69787    1.000
    O59      O        0.44493    0.43820    0.45087    1.000
    O60      O        0.39911    0.38664    0.48857    1.000
    C71      C        0.25639    0.39294    0.49337    1.000
    C72      C        0.26707    0.41294    0.62357    1.000
    C73      C        0.29843    0.42664    0.67187    1.000
    H31      H        0.30503    0.43967    0.76047    1.000
    C74      C        0.31986    0.42138    0.59177    1.000
    C75      C        0.30990    0.40361    0.45807    1.000
    H32      H        0.32453    0.40127    0.39777    1.000
    C76      C        0.27822    0.38874    0.40827    1.000
    H33      H        0.27193    0.37607    0.31817    1.000
    C77      C        0.22306    0.37589    0.43147    1.000
    C78      C        0.35283    0.43459    0.64707    1.000
    C79      C        0.36766    0.46154    0.74397    1.000
    H34      H        0.35683    0.47197    0.77207    1.000
    C80      C        0.39787    0.47257    0.79757    1.000
    H35      H        0.40633    0.48897    0.87057    1.000
    C81      C        0.41612    0.45985    0.74577    1.000
    C82      C        0.40313    0.43469    0.64617    1.000
    C83      C        0.37108    0.42148    0.60057    1.000
    H36      H        0.36193    0.40337    0.53757    1.000
    C84      C        0.45005    0.47523    0.80667    1.000
    K7       K        0.24739    0.17294    0.43158    1.000
    Eu7      Eu       0.32533    0.17235    0.11809    1.000
    S13      S        0.24386    0.15208    0.06418    1.000
    S14      S        0.25141    0.34109    0.89880    1.000
    O61      O        0.30592    0.17272    0.85960    1.000
    O62      O        0.29058    0.17614    0.62180    1.000
    O63      O        0.27153    0.15994    0.16300    1.000
    O64      O        0.21712    0.14590    0.16470    1.000
    O65      O        0.23772    0.12812    0.94960    1.000
    O66      O        0.18575    0.30698    0.28600    1.000
    O67      O        0.18395    0.32337    0.04840    1.000
    O68      O        0.25616    0.36164    0.03120    1.000
    O69      O        0.22847    0.34007    0.78420    1.000
    O70      O        0.28003    0.34581    0.82190    1.000
    C85      C        0.27373    0.19679    0.82670    1.000
    C86      C        0.25373    0.18747    0.95690    1.000
    C87      C        0.24003    0.20513    0.00520    1.000
    H37      H        0.22700    0.19870    0.09380    1.000
    C88      C        0.24529    0.23182    0.92510    1.000
    C89      C        0.26306    0.23963    0.79140    1.000
    H38      H        0.26540    0.25660    0.73110    1.000
    C90      C        0.27793    0.22282    0.74160    1.000
    H39      H        0.29060    0.22920    0.65150    1.000
    C91      C        0.29078    0.18051    0.76480    1.000
    C92      C        0.23208    0.25158    0.98040    1.000
    C93      C        0.20513    0.23946    0.07730    1.000
    H40      H        0.19470    0.21820    0.10540    1.000
    C94      C        0.19410    0.25864    0.13090    1.000
    H41      H        0.17770    0.25070    0.20390    1.000
    C95      C        0.20682    0.28961    0.07910    1.000
    C96      C        0.23198    0.30178    0.97950    1.000
    C97      C        0.24519    0.28294    0.93390    1.000
    H42      H        0.26330    0.29190    0.87090    1.000
    C98      C        0.19144    0.30816    0.14000    1.000
    K8       K        0.91406    0.50627    0.76491    1.000
    Eu8      Eu       0.99200    0.50568    0.45142    1.000
    S15      S        0.91053    0.48541    0.39751    1.000
    S16      S        0.91808    0.67442    0.23213    1.000
    O71      O        0.97259    0.50605    0.19293    1.000
    O72      O        0.95725    0.50947    0.95513    1.000
    O73      O        0.93820    0.49327    0.49633    1.000
    O74      O        0.88379    0.47923    0.49803    1.000
    O75      O        0.90439    0.46145    0.28293    1.000
    O76      O        0.85242    0.64031    0.61933    1.000
    O77      O        0.85062    0.65670    0.38173    1.000
    O78      O        0.92283    0.69497    0.36453    1.000
    O79      O        0.89514    0.67340    0.11753    1.000
    O80      O        0.94670    0.67914    0.15523    1.000
    C99      C        0.94040    0.53012    0.16003    1.000
    C100     C        0.92040    0.52080    0.29023    1.000
    C101     C        0.90670    0.53846    0.33853    1.000
    H43      H        0.89367    0.53203    0.42713    1.000
    C102     C        0.91196    0.56515    0.25843    1.000
    C103     C        0.92973    0.57296    0.12473    1.000
    H44      H        0.93207    0.58993    0.06443    1.000
    C104     C        0.94460    0.55615    0.07493    1.000
    H45      H        0.95727    0.56253    0.98483    1.000
    C105     C        0.95745    0.51384    0.09813    1.000
    C106     C        0.89875    0.58491    0.31373    1.000
    C107     C        0.87180    0.57279    0.41063    1.000
    H46      H        0.86137    0.55153    0.43873    1.000
    C108     C        0.86077    0.59197    0.46423    1.000
    H47      H        0.84437    0.58403    0.53723    1.000
    C109     C        0.87349    0.62294    0.41243    1.000
    C110     C        0.89865    0.63511    0.31283    1.000
    C111     C        0.91186    0.61627    0.26723    1.000
    H48      H        0.92997    0.62523    0.20423    1.000
    C112     C        0.85811    0.64149    0.47333    1.000
    K9       K        0.58072    0.83961    0.09825    1.000
    Eu9      Eu       0.65866    0.83902    0.78476    1.000
    S17      S        0.57719    0.81875    0.73085    1.000
    S18      S        0.58474    0.00776    0.56547    1.000
    O81      O        0.63925    0.83939    0.52627    1.000
    O82      O        0.62391    0.84281    0.28847    1.000
    O83      O        0.60486    0.82661    0.82967    1.000
    O84      O        0.55045    0.81257    0.83137    1.000
    O85      O        0.57105    0.79479    0.61627    1.000
    O86      O        0.51908    0.97365    0.95267    1.000
    O87      O        0.51728    0.99004    0.71507    1.000
    O88      O        0.58949    0.02831    0.69787    1.000
    O89      O        0.56180    0.00674    0.45087    1.000
    O90      O        0.61336    0.01248    0.48857    1.000
    C113     C        0.60706    0.86346    0.49337    1.000
    C114     C        0.58706    0.85414    0.62357    1.000
    C115     C        0.57336    0.87180    0.67187    1.000
    H49      H        0.56033    0.86537    0.76047    1.000
    C116     C        0.57862    0.89849    0.59177    1.000
    C117     C        0.59639    0.90630    0.45807    1.000
    H50      H        0.59873    0.92327    0.39777    1.000
    C118     C        0.61126    0.88949    0.40827    1.000
    H51      H        0.62393    0.89587    0.31817    1.000
    C119     C        0.62411    0.84718    0.43147    1.000
    C120     C        0.56541    0.91825    0.64707    1.000
    C121     C        0.53846    0.90613    0.74397    1.000
    H52      H        0.52803    0.88487    0.77207    1.000
    C122     C        0.52743    0.92531    0.79757    1.000
    H53      H        0.51103    0.91737    0.87057    1.000
    C123     C        0.54015    0.95628    0.74577    1.000
    C124     C        0.56531    0.96845    0.64617    1.000
    C125     C        0.57852    0.94961    0.60057    1.000
    H54      H        0.59663    0.95857    0.53757    1.000
    C126     C        0.52477    0.97483    0.80667    1.000
    K10      K        0.92555    0.17294    0.93158    1.000
    Eu10     Eu       0.84702    0.17235    0.61809    1.000
    S19      S        0.90822    0.15208    0.56418    1.000
    S20      S        0.08968    0.34109    0.39880    1.000
    O91      O        0.86680    0.17272    0.35960    1.000
    O92      O        0.88556    0.17614    0.12180    1.000
    O93      O        0.88841    0.15994    0.66300    1.000
    O94      O        0.92878    0.14590    0.66470    1.000
    O95      O        0.89040    0.12812    0.44960    1.000
    O96      O        0.12123    0.30698    0.78600    1.000
    O97      O        0.13942    0.32337    0.54840    1.000
    O98      O        0.10548    0.36164    0.53120    1.000
    O99      O        0.11160    0.34007    0.28420    1.000
    O100     O        0.06578    0.34581    0.32190    1.000
    C127     C        0.92306    0.19679    0.32670    1.000
    C128     C        0.93374    0.18747    0.45690    1.000
    C129     C        0.96510    0.20513    0.50520    1.000
    H55      H        0.97170    0.19870    0.59380    1.000
    C130     C        0.98653    0.23182    0.42510    1.000
    C131     C        0.97657    0.23963    0.29140    1.000
    H56      H        0.99120    0.25660    0.23110    1.000
    C132     C        0.94489    0.22282    0.24160    1.000
    H57      H        0.93860    0.22920    0.15150    1.000
    C133     C        0.88973    0.18051    0.26480    1.000
    C134     C        0.01950    0.25158    0.48040    1.000
    C135     C        0.03433    0.23946    0.57730    1.000
    H58      H        0.02350    0.21820    0.60540    1.000
    C136     C        0.06454    0.25864    0.63090    1.000
    H59      H        0.07300    0.25070    0.70390    1.000
    C137     C        0.08279    0.28961    0.57910    1.000
    C138     C        0.06980    0.30178    0.47950    1.000
    C139     C        0.03775    0.28294    0.43390    1.000
    H60      H        0.02860    0.29190    0.37090    1.000
    C140     C        0.11672    0.30816    0.64000    1.000
    K11      K        0.59222    0.50627    0.26491    1.000
    Eu11     Eu       0.51369    0.50568    0.95142    1.000
    S21      S        0.57489    0.48541    0.89751    1.000
    S22      S        0.75635    0.67442    0.73213    1.000
    O101     O        0.53347    0.50605    0.69293    1.000
    O102     O        0.55223    0.50947    0.45513    1.000
    O103     O        0.55508    0.49327    0.99633    1.000
    O104     O        0.59545    0.47923    0.99803    1.000
    O105     O        0.55707    0.46145    0.78293    1.000
    O106     O        0.78790    0.64031    0.11933    1.000
    O107     O        0.80609    0.65670    0.88173    1.000
    O108     O        0.77215    0.69497    0.86453    1.000
    O109     O        0.77827    0.67340    0.61753    1.000
    O110     O        0.73245    0.67914    0.65523    1.000
    C141     C        0.58973    0.53012    0.66003    1.000
    C142     C        0.60041    0.52080    0.79023    1.000
    C143     C        0.63177    0.53846    0.83853    1.000
    H61      H        0.63837    0.53203    0.92713    1.000
    C144     C        0.65320    0.56515    0.75843    1.000
    C145     C        0.64324    0.57296    0.62473    1.000
    H62      H        0.65787    0.58993    0.56443    1.000
    C146     C        0.61156    0.55615    0.57493    1.000
    H63      H        0.60527    0.56253    0.48483    1.000
    C147     C        0.55640    0.51384    0.59813    1.000
    C148     C        0.68617    0.58491    0.81373    1.000
    C149     C        0.70100    0.57279    0.91063    1.000
    H64      H        0.69017    0.55153    0.93873    1.000
    C150     C        0.73121    0.59197    0.96423    1.000
    H65      H        0.73967    0.58403    0.03723    1.000
    C151     C        0.74946    0.62294    0.91243    1.000
    C152     C        0.73647    0.63511    0.81283    1.000
    C153     C        0.70442    0.61627    0.76723    1.000
    H66      H        0.69527    0.62523    0.70423    1.000
    C154     C        0.78339    0.64149    0.97333    1.000
    K12      K        0.25888    0.83961    0.59825    1.000
    Eu12     Eu       0.18035    0.83902    0.28476    1.000
    S23      S        0.24155    0.81875    0.23085    1.000
    S24      S        0.42301    0.00776    0.06547    1.000
    O111     O        0.20013    0.83939    0.02627    1.000
    O112     O        0.21889    0.84281    0.78847    1.000
    O113     O        0.22174    0.82661    0.32967    1.000
    O114     O        0.26211    0.81257    0.33137    1.000
    O115     O        0.22373    0.79479    0.11627    1.000
    O116     O        0.45456    0.97365    0.45267    1.000
    O117     O        0.47275    0.99004    0.21507    1.000
    O118     O        0.43881    0.02831    0.19787    1.000
    O119     O        0.44493    0.00674    0.95087    1.000
    O120     O        0.39911    0.01248    0.98857    1.000
    C155     C        0.25639    0.86346    0.99337    1.000
    C156     C        0.26707    0.85414    0.12357    1.000
    C157     C        0.29843    0.87180    0.17187    1.000
    H67      H        0.30503    0.86537    0.26047    1.000
    C158     C        0.31986    0.89849    0.09177    1.000
    C159     C        0.30990    0.90630    0.95807    1.000
    H68      H        0.32453    0.92327    0.89777    1.000
    C160     C        0.27822    0.88949    0.90827    1.000
    H69      H        0.27193    0.89587    0.81817    1.000
    C161     C        0.22306    0.84718    0.93147    1.000
    C162     C        0.35283    0.91825    0.14707    1.000
    C163     C        0.36766    0.90613    0.24397    1.000
    H70      H        0.35683    0.88487    0.27207    1.000
    C164     C        0.39787    0.92531    0.29757    1.000
    H71      H        0.40633    0.91737    0.37057    1.000
    C165     C        0.41612    0.95628    0.24577    1.000
    C166     C        0.40313    0.96845    0.14617    1.000
    C167     C        0.37108    0.94961    0.10057    1.000
    H72      H        0.36193    0.95857    0.03757    1.000
    C168     C        0.45005    0.97483    0.30667    1.000
    K13      K        0.24739    0.07445    0.93158    1.000
    Eu13     Eu       0.32533    0.15298    0.61809    1.000
    S25      S        0.24386    0.09178    0.56418    1.000
    S26      S        0.25141    0.91032    0.39880    1.000
    O121     O        0.30592    0.13320    0.35960    1.000
    O122     O        0.29058    0.11444    0.12180    1.000
    O123     O        0.27153    0.11159    0.66300    1.000
    O124     O        0.21712    0.07122    0.66470    1.000
    O125     O        0.23772    0.10960    0.44960    1.000
    O126     O        0.18575    0.87877    0.78600    1.000
    O127     O        0.18395    0.86058    0.54840    1.000
    O128     O        0.25616    0.89452    0.53120    1.000
    O129     O        0.22847    0.88840    0.28420    1.000
    O130     O        0.28003    0.93422    0.32190    1.000
    C169     C        0.27373    0.07694    0.32670    1.000
    C170     C        0.25373    0.06626    0.45690    1.000
    C171     C        0.24003    0.03490    0.50520    1.000
    H73      H        0.22700    0.02830    0.59380    1.000
    C172     C        0.24529    0.01347    0.42510    1.000
    C173     C        0.26306    0.02343    0.29140    1.000
    H74      H        0.26540    0.00880    0.23110    1.000
    C174     C        0.27793    0.05511    0.24160    1.000
    H75      H        0.29060    0.06140    0.15150    1.000
    C175     C        0.29078    0.11027    0.26480    1.000
    C176     C        0.23208    0.98050    0.48040    1.000
    C177     C        0.20513    0.96567    0.57730    1.000
    H76      H        0.19470    0.97650    0.60540    1.000
    C178     C        0.19410    0.93546    0.63090    1.000
    H77      H        0.17770    0.92700    0.70390    1.000
    C179     C        0.20682    0.91721    0.57910    1.000
    C180     C        0.23198    0.93020    0.47950    1.000
    C181     C        0.24519    0.96225    0.43390    1.000
    H78      H        0.26330    0.97140    0.37090    1.000
    C182     C        0.19144    0.88328    0.64000    1.000
    K14      K        0.91406    0.40778    0.26491    1.000
    Eu14     Eu       0.99200    0.48631    0.95142    1.000
    S27      S        0.91053    0.42511    0.89751    1.000
    S28      S        0.91808    0.24365    0.73213    1.000
    O131     O        0.97259    0.46653    0.69293    1.000
    O132     O        0.95725    0.44777    0.45513    1.000
    O133     O        0.93820    0.44492    0.99633    1.000
    O134     O        0.88379    0.40455    0.99803    1.000
    O135     O        0.90439    0.44293    0.78293    1.000
    O136     O        0.85242    0.21210    0.11933    1.000
    O137     O        0.85062    0.19391    0.88173    1.000
    O138     O        0.92283    0.22785    0.86453    1.000
    O139     O        0.89514    0.22173    0.61753    1.000
    O140     O        0.94670    0.26755    0.65523    1.000
    C183     C        0.94040    0.41027    0.66003    1.000
    C184     C        0.92040    0.39959    0.79023    1.000
    C185     C        0.90670    0.36823    0.83853    1.000
    H79      H        0.89367    0.36163    0.92713    1.000
    C186     C        0.91196    0.34680    0.75843    1.000
    C187     C        0.92973    0.35676    0.62473    1.000
    H80      H        0.93207    0.34213    0.56443    1.000
    C188     C        0.94460    0.38844    0.57493    1.000
    H81      H        0.95727    0.39473    0.48483    1.000
    C189     C        0.95745    0.44360    0.59813    1.000
    C190     C        0.89875    0.31383    0.81373    1.000
    C191     C        0.87180    0.29900    0.91063    1.000
    H82      H        0.86137    0.30983    0.93873    1.000
    C192     C        0.86077    0.26879    0.96423    1.000
    H83      H        0.84437    0.26033    0.03723    1.000
    C193     C        0.87349    0.25054    0.91243    1.000
    C194     C        0.89865    0.26353    0.81283    1.000
    C195     C        0.91186    0.29558    0.76723    1.000
    H84      H        0.92997    0.30473    0.70423    1.000
    C196     C        0.85811    0.21661    0.97333    1.000
    K15      K        0.58072    0.74112    0.59825    1.000
    Eu15     Eu       0.65866    0.81965    0.28476    1.000
    S29      S        0.57719    0.75845    0.23085    1.000
    S30      S        0.58474    0.57699    0.06547    1.000
    O141     O        0.63925    0.79987    0.02627    1.000
    O142     O        0.62391    0.78111    0.78847    1.000
    O143     O        0.60486    0.77826    0.32967    1.000
    O144     O        0.55045    0.73789    0.33137    1.000
    O145     O        0.57105    0.77627    0.11627    1.000
    O146     O        0.51908    0.54544    0.45267    1.000
    O147     O        0.51728    0.52725    0.21507    1.000
    O148     O        0.58949    0.56119    0.19787    1.000
    O149     O        0.56180    0.55507    0.95087    1.000
    O150     O        0.61336    0.60089    0.98857    1.000
    C197     C        0.60706    0.74361    0.99337    1.000
    C198     C        0.58706    0.73293    0.12357    1.000
    C199     C        0.57336    0.70157    0.17187    1.000
    H85      H        0.56033    0.69497    0.26047    1.000
    C200     C        0.57862    0.68014    0.09177    1.000
    C201     C        0.59639    0.69010    0.95807    1.000
    H86      H        0.59873    0.67547    0.89777    1.000
    C202     C        0.61126    0.72178    0.90827    1.000
    H87      H        0.62393    0.72807    0.81817    1.000
    C203     C        0.62411    0.77694    0.93147    1.000
    C204     C        0.56541    0.64717    0.14707    1.000
    C205     C        0.53846    0.63234    0.24397    1.000
    H88      H        0.52803    0.64317    0.27207    1.000
    C206     C        0.52743    0.60213    0.29757    1.000
    H89      H        0.51103    0.59367    0.37057    1.000
    C207     C        0.54015    0.58388    0.24577    1.000
    C208     C        0.56531    0.59687    0.14617    1.000
    C209     C        0.57852    0.62892    0.10057    1.000
    H90      H        0.59663    0.63807    0.03757    1.000
    C210     C        0.52477    0.54995    0.30667    1.000
    K16      K        0.82706    0.75261    0.93158    1.000
    Eu16     Eu       0.82765    0.67467    0.61809    1.000
    S31      S        0.84792    0.75614    0.56418    1.000
    S32      S        0.65891    0.74859    0.39880    1.000
    O151     O        0.82728    0.69408    0.35960    1.000
    O152     O        0.82386    0.70942    0.12180    1.000
    O153     O        0.84006    0.72847    0.66300    1.000
    O154     O        0.85410    0.78288    0.66470    1.000
    O155     O        0.87188    0.76228    0.44960    1.000
    O156     O        0.69302    0.81425    0.78600    1.000
    O157     O        0.67663    0.81605    0.54840    1.000
    O158     O        0.63836    0.74384    0.53120    1.000
    O159     O        0.65993    0.77153    0.28420    1.000
    O160     O        0.65419    0.71997    0.32190    1.000
    C211     C        0.80321    0.72627    0.32670    1.000
    C212     C        0.81253    0.74627    0.45690    1.000
    C213     C        0.79487    0.75997    0.50520    1.000
    H91      H        0.80130    0.77300    0.59380    1.000
    C214     C        0.76818    0.75471    0.42510    1.000
    C215     C        0.76037    0.73694    0.29140    1.000
    H92      H        0.74340    0.73460    0.23110    1.000
    C216     C        0.77718    0.72207    0.24160    1.000
    H93      H        0.77080    0.70940    0.15150    1.000
    C217     C        0.81949    0.70922    0.26480    1.000
    C218     C        0.74842    0.76792    0.48040    1.000
    C219     C        0.76054    0.79487    0.57730    1.000
    H94      H        0.78180    0.80530    0.60540    1.000
    C220     C        0.74136    0.80590    0.63090    1.000
    H95      H        0.74930    0.82230    0.70390    1.000
    C221     C        0.71039    0.79318    0.57910    1.000
    C222     C        0.69822    0.76802    0.47950    1.000
    C223     C        0.71706    0.75481    0.43390    1.000
    H96      H        0.70810    0.73670    0.37090    1.000
    C224     C        0.69184    0.80856    0.64000    1.000
    K17      K        0.49373    0.08594    0.26491    1.000
    Eu17     Eu       0.49432    0.00800    0.95142    1.000
    S33      S        0.51459    0.08947    0.89751    1.000
    S34      S        0.32558    0.08192    0.73213    1.000
    O161     O        0.49395    0.02741    0.69293    1.000
    O162     O        0.49053    0.04275    0.45513    1.000
    O163     O        0.50673    0.06180    0.99633    1.000
    O164     O        0.52077    0.11621    0.99803    1.000
    O165     O        0.53855    0.09561    0.78293    1.000
    O166     O        0.35969    0.14758    0.11933    1.000
    O167     O        0.34330    0.14938    0.88173    1.000
    O168     O        0.30503    0.07717    0.86453    1.000
    O169     O        0.32660    0.10486    0.61753    1.000
    O170     O        0.32086    0.05330    0.65523    1.000
    C225     C        0.46988    0.05960    0.66003    1.000
    C226     C        0.47920    0.07960    0.79023    1.000
    C227     C        0.46154    0.09330    0.83853    1.000
    H97      H        0.46797    0.10633    0.92713    1.000
    C228     C        0.43485    0.08804    0.75843    1.000
    C229     C        0.42704    0.07027    0.62473    1.000
    H98      H        0.41007    0.06793    0.56443    1.000
    C230     C        0.44385    0.05540    0.57493    1.000
    H99      H        0.43747    0.04273    0.48483    1.000
    C231     C        0.48616    0.04255    0.59813    1.000
    C232     C        0.41509    0.10125    0.81373    1.000
    C233     C        0.42721    0.12820    0.91063    1.000
    H100     H        0.44847    0.13863    0.93873    1.000
    C234     C        0.40803    0.13923    0.96423    1.000
    H101     H        0.41597    0.15563    0.03723    1.000
    C235     C        0.37706    0.12651    0.91243    1.000
    C236     C        0.36489    0.10135    0.81283    1.000
    C237     C        0.38373    0.08814    0.76723    1.000
    H102     H        0.37477    0.07003    0.70423    1.000
    C238     C        0.35851    0.14189    0.97333    1.000
    K18      K        0.16039    0.41928    0.59825    1.000
    Eu18     Eu       0.16098    0.34134    0.28476    1.000
    S35      S        0.18125    0.42281    0.23085    1.000
    S36      S        0.99224    0.41526    0.06547    1.000
    O171     O        0.16061    0.36075    0.02627    1.000
    O172     O        0.15719    0.37609    0.78847    1.000
    O173     O        0.17339    0.39514    0.32967    1.000
    O174     O        0.18743    0.44955    0.33137    1.000
    O175     O        0.20521    0.42895    0.11627    1.000
    O176     O        0.02635    0.48092    0.45267    1.000
    O177     O        0.00996    0.48272    0.21507    1.000
    O178     O        0.97169    0.41051    0.19787    1.000
    O179     O        0.99326    0.43820    0.95087    1.000
    O180     O        0.98752    0.38664    0.98857    1.000
    C239     C        0.13654    0.39294    0.99337    1.000
    C240     C        0.14586    0.41294    0.12357    1.000
    C241     C        0.12820    0.42664    0.17187    1.000
    H103     H        0.13463    0.43967    0.26047    1.000
    C242     C        0.10151    0.42138    0.09177    1.000
    C243     C        0.09370    0.40361    0.95807    1.000
    H104     H        0.07673    0.40127    0.89777    1.000
    C244     C        0.11051    0.38874    0.90827    1.000
    H105     H        0.10413    0.37607    0.81817    1.000
    C245     C        0.15282    0.37589    0.93147    1.000
    C246     C        0.08175    0.43459    0.14707    1.000
    C247     C        0.09387    0.46154    0.24397    1.000
    H106     H        0.11513    0.47197    0.27207    1.000
    C248     C        0.07469    0.47257    0.29757    1.000
    H107     H        0.08263    0.48897    0.37057    1.000
    C249     C        0.04372    0.45985    0.24577    1.000
    C250     C        0.03155    0.43469    0.14617    1.000
    C251     C        0.05039    0.42148    0.10057    1.000
    H108     H        0.04143    0.40337    0.03757    1.000
    C252     C        0.02517    0.47523    0.30667    1.000
