# CIF file generated by openbabel 3.1.0, see https://openbabel.org
data_I
_chemical_name_common 'image0'
_cell_length_a 27.6817
_cell_length_b 10.2694
_cell_length_c 20.6356
_cell_angle_alpha 90
_cell_angle_beta 123.241
_cell_angle_gamma 90
_space_group_name_H-M_alt 'P 1'
_space_group_name_Hall 'P 1'
loop_
    _symmetry_equiv_pos_as_xyz
    x,y,z
loop_
    _atom_site_label
    _atom_site_type_symbol
    _atom_site_fract_x
    _atom_site_fract_y
    _atom_site_fract_z
    _atom_site_occupancy
    Cd1      Cd       0.82489    0.79745    0.54825    1.000
    Cd2      Cd       0.95707    0.97830    0.63539    1.000
    O1       O        0.90568    0.79110    0.54060    1.000
    O2       O        0.73838    0.15100    0.04436    1.000
    O3       O        0.70076    0.46540    0.02978    1.000
    N1       N        0.92844    0.88470    0.71203    1.000
    O4       O        0.66450    0.06420    0.93786    1.000
    N2       N        0.95504    0.87800    0.78883    1.000
    O5       O        0.94788    0.95390    0.52036    1.000
    N3       N        0.87910    0.81760    0.67614    1.000
    O6       O        0.63171    0.58120    0.92985    1.000
    C1       C        0.87331    0.76490    0.73193    1.000
    C2       C        0.76169    0.91540    0.12435    1.000
    H1       H        0.78070    0.99070    0.15140    1.000
    C3       C        0.81513    0.79750    0.25007    1.000
    C4       C        0.72126    0.92300    0.04529    1.000
    C5       C        0.91463    0.85660    0.49614    1.000
    C6       C        0.69223    0.81180    0.00395    1.000
    H2       H        0.66440    0.81680    0.95110    1.000
    C7       C        0.77457    0.79840    0.16434    1.000
    C8       C        0.70719    0.05250    0.00559    1.000
    C9       C        0.70505    0.69360    0.04203    1.000
    C10      C        0.74589    0.68700    0.12162    1.000
    H3       H        0.75420    0.60690    0.14670    1.000
    C11      C        0.67616    0.57100    0.99676    1.000
    C12      C        0.92150    0.80290    0.80328    1.000
    C13      C        0.80615    0.71990    0.29720    1.000
    H4       H        0.77680    0.65820    0.27480    1.000
    C14      C        0.92737    0.76600    0.87350    1.000
    H5       H        0.95900    0.79170    0.92150    1.000
    C15      C        0.83996    0.73210    0.37720    1.000
    H6       H        0.83330    0.67850    0.40780    1.000
    C16      C        0.88386    0.82440    0.41169    1.000
    C17      C        0.89558    0.89630    0.36477    1.000
    H7       H        0.92640    0.95440    0.38720    1.000
    C18      C        0.86199    0.88250    0.28516    1.000
    H8       H        0.87080    0.93050    0.25470    1.000
    C19      C        0.83019    0.68560    0.72680    1.000
    H9       H        0.79860    0.65800    0.67930    1.000
    C20      C        0.83686    0.65100    0.79470    1.000
    H10      H        0.80890    0.59850    0.79320    1.000
    C21      C        0.88442    0.69120    0.86740    1.000
    H11      H        0.88650    0.66610    0.91210    1.000
    Cd3      Cd       0.32489    0.29745    0.54825    1.000
    Cd4      Cd       0.45707    0.47830    0.63539    1.000
    O7       O        0.40568    0.29110    0.54060    1.000
    O8       O        0.23838    0.65100    0.04436    1.000
    O9       O        0.20076    0.96540    0.02978    1.000
    N4       N        0.42844    0.38470    0.71203    1.000
    O10      O        0.16450    0.56420    0.93786    1.000
    N5       N        0.45504    0.37800    0.78883    1.000
    O11      O        0.44788    0.45390    0.52036    1.000
    N6       N        0.37910    0.31760    0.67614    1.000
    O12      O        0.13171    0.08120    0.92985    1.000
    C22      C        0.37331    0.26490    0.73193    1.000
    C23      C        0.26169    0.41540    0.12435    1.000
    H12      H        0.28070    0.49070    0.15140    1.000
    C24      C        0.31513    0.29750    0.25007    1.000
    C25      C        0.22126    0.42300    0.04529    1.000
    C26      C        0.41463    0.35660    0.49614    1.000
    C27      C        0.19223    0.31180    0.00395    1.000
    H13      H        0.16440    0.31680    0.95110    1.000
    C28      C        0.27457    0.29840    0.16434    1.000
    C29      C        0.20719    0.55250    0.00559    1.000
    C30      C        0.20505    0.19360    0.04203    1.000
    C31      C        0.24589    0.18700    0.12162    1.000
    H14      H        0.25420    0.10690    0.14670    1.000
    C32      C        0.17616    0.07100    0.99676    1.000
    C33      C        0.42150    0.30290    0.80328    1.000
    C34      C        0.30615    0.21990    0.29720    1.000
    H15      H        0.27680    0.15820    0.27480    1.000
    C35      C        0.42737    0.26600    0.87350    1.000
    H16      H        0.45900    0.29170    0.92150    1.000
    C36      C        0.33996    0.23210    0.37720    1.000
    H17      H        0.33330    0.17850    0.40780    1.000
    C37      C        0.38386    0.32440    0.41169    1.000
    C38      C        0.39558    0.39630    0.36477    1.000
    H18      H        0.42640    0.45440    0.38720    1.000
    C39      C        0.36199    0.38250    0.28516    1.000
    H19      H        0.37080    0.43050    0.25470    1.000
    C40      C        0.33019    0.18560    0.72680    1.000
    H20      H        0.29860    0.15800    0.67930    1.000
    C41      C        0.33686    0.15100    0.79470    1.000
    H21      H        0.30890    0.09850    0.79320    1.000
    C42      C        0.38442    0.19120    0.86740    1.000
    H22      H        0.38650    0.16610    0.91210    1.000
    Cd5      Cd       0.17511    0.79745    0.95175    1.000
    Cd6      Cd       0.04293    0.97830    0.86461    1.000
    O13      O        0.09432    0.79110    0.95940    1.000
    O14      O        0.26162    0.15100    0.45564    1.000
    O15      O        0.29924    0.46540    0.47022    1.000
    N7       N        0.07156    0.88470    0.78797    1.000
    O16      O        0.33550    0.06420    0.56214    1.000
    N8       N        0.04496    0.87800    0.71117    1.000
    O17      O        0.05212    0.95390    0.97964    1.000
    N9       N        0.12090    0.81760    0.82386    1.000
    O18      O        0.36829    0.58120    0.57015    1.000
    C43      C        0.12669    0.76490    0.76807    1.000
    C44      C        0.23831    0.91540    0.37565    1.000
    H23      H        0.21930    0.99070    0.34860    1.000
    C45      C        0.18487    0.79750    0.24993    1.000
    C46      C        0.27874    0.92300    0.45471    1.000
    C47      C        0.08537    0.85660    0.00386    1.000
    C48      C        0.30777    0.81180    0.49605    1.000
    H24      H        0.33560    0.81680    0.54890    1.000
    C49      C        0.22543    0.79840    0.33566    1.000
    C50      C        0.29281    0.05250    0.49441    1.000
    C51      C        0.29495    0.69360    0.45797    1.000
    C52      C        0.25411    0.68700    0.37838    1.000
    H25      H        0.24580    0.60690    0.35330    1.000
    C53      C        0.32384    0.57100    0.50324    1.000
    C54      C        0.07850    0.80290    0.69672    1.000
    C55      C        0.19385    0.71990    0.20280    1.000
    H26      H        0.22320    0.65820    0.22520    1.000
    C56      C        0.07263    0.76600    0.62650    1.000
    H27      H        0.04100    0.79170    0.57850    1.000
    C57      C        0.16004    0.73210    0.12280    1.000
    H28      H        0.16670    0.67850    0.09220    1.000
    C58      C        0.11614    0.82440    0.08831    1.000
    C59      C        0.10442    0.89630    0.13523    1.000
    H29      H        0.07360    0.95440    0.11280    1.000
    C60      C        0.13801    0.88250    0.21484    1.000
    H30      H        0.12920    0.93050    0.24530    1.000
    C61      C        0.16981    0.68560    0.77320    1.000
    H31      H        0.20140    0.65800    0.82070    1.000
    C62      C        0.16314    0.65100    0.70530    1.000
    H32      H        0.19110    0.59850    0.70680    1.000
    C63      C        0.11558    0.69120    0.63260    1.000
    H33      H        0.11350    0.66610    0.58790    1.000
    Cd7      Cd       0.67511    0.29745    0.95175    1.000
    Cd8      Cd       0.54293    0.47830    0.86461    1.000
    O19      O        0.59432    0.29110    0.95940    1.000
    O20      O        0.76162    0.65100    0.45564    1.000
    O21      O        0.79924    0.96540    0.47022    1.000
    N10      N        0.57156    0.38470    0.78797    1.000
    O22      O        0.83550    0.56420    0.56214    1.000
    N11      N        0.54496    0.37800    0.71117    1.000
    O23      O        0.55212    0.45390    0.97964    1.000
    N12      N        0.62090    0.31760    0.82386    1.000
    O24      O        0.86829    0.08120    0.57015    1.000
    C64      C        0.62669    0.26490    0.76807    1.000
    C65      C        0.73831    0.41540    0.37565    1.000
    H34      H        0.71930    0.49070    0.34860    1.000
    C66      C        0.68487    0.29750    0.24993    1.000
    C67      C        0.77874    0.42300    0.45471    1.000
    C68      C        0.58537    0.35660    0.00386    1.000
    C69      C        0.80777    0.31180    0.49605    1.000
    H35      H        0.83560    0.31680    0.54890    1.000
    C70      C        0.72543    0.29840    0.33566    1.000
    C71      C        0.79281    0.55250    0.49441    1.000
    C72      C        0.79495    0.19360    0.45797    1.000
    C73      C        0.75411    0.18700    0.37838    1.000
    H36      H        0.74580    0.10690    0.35330    1.000
    C74      C        0.82384    0.07100    0.50324    1.000
    C75      C        0.57850    0.30290    0.69672    1.000
    C76      C        0.69385    0.21990    0.20280    1.000
    H37      H        0.72320    0.15820    0.22520    1.000
    C77      C        0.57263    0.26600    0.62650    1.000
    H38      H        0.54100    0.29170    0.57850    1.000
    C78      C        0.66004    0.23210    0.12280    1.000
    H39      H        0.66670    0.17850    0.09220    1.000
    C79      C        0.61614    0.32440    0.08831    1.000
    C80      C        0.60442    0.39630    0.13523    1.000
    H40      H        0.57360    0.45440    0.11280    1.000
    C81      C        0.63801    0.38250    0.21484    1.000
    H41      H        0.62920    0.43050    0.24530    1.000
    C82      C        0.66981    0.18560    0.77320    1.000
    H42      H        0.70140    0.15800    0.82070    1.000
    C83      C        0.66314    0.15100    0.70530    1.000
    H43      H        0.69110    0.09850    0.70680    1.000
    C84      C        0.61558    0.19120    0.63260    1.000
    H44      H        0.61350    0.16610    0.58790    1.000
    Cd9      Cd       0.17511    0.20255    0.45175    1.000
    Cd10     Cd       0.04293    0.02170    0.36461    1.000
    O25      O        0.09432    0.20890    0.45940    1.000
    O26      O        0.26162    0.84900    0.95564    1.000
    O27      O        0.29924    0.53460    0.97022    1.000
    N13      N        0.07156    0.11530    0.28797    1.000
    O28      O        0.33550    0.93580    0.06214    1.000
    N14      N        0.04496    0.12200    0.21117    1.000
    O29      O        0.05212    0.04610    0.47964    1.000
    N15      N        0.12090    0.18240    0.32386    1.000
    O30      O        0.36829    0.41880    0.07015    1.000
    C85      C        0.12669    0.23510    0.26807    1.000
    C86      C        0.23831    0.08460    0.87565    1.000
    H45      H        0.21930    0.00930    0.84860    1.000
    C87      C        0.18487    0.20250    0.74993    1.000
    C88      C        0.27874    0.07700    0.95471    1.000
    C89      C        0.08537    0.14340    0.50386    1.000
    C90      C        0.30777    0.18820    0.99605    1.000
    H46      H        0.33560    0.18320    0.04890    1.000
    C91      C        0.22543    0.20160    0.83566    1.000
    C92      C        0.29281    0.94750    0.99441    1.000
    C93      C        0.29495    0.30640    0.95797    1.000
    C94      C        0.25411    0.31300    0.87838    1.000
    H47      H        0.24580    0.39310    0.85330    1.000
    C95      C        0.32384    0.42900    0.00324    1.000
    C96      C        0.07850    0.19710    0.19672    1.000
    C97      C        0.19385    0.28010    0.70280    1.000
    H48      H        0.22320    0.34180    0.72520    1.000
    C98      C        0.07263    0.23400    0.12650    1.000
    H49      H        0.04100    0.20830    0.07850    1.000
    C99      C        0.16004    0.26790    0.62280    1.000
    H50      H        0.16670    0.32150    0.59220    1.000
    C100     C        0.11614    0.17560    0.58831    1.000
    C101     C        0.10442    0.10370    0.63523    1.000
    H51      H        0.07360    0.04560    0.61280    1.000
    C102     C        0.13801    0.11750    0.71484    1.000
    H52      H        0.12920    0.06950    0.74530    1.000
    C103     C        0.16981    0.31440    0.27320    1.000
    H53      H        0.20140    0.34200    0.32070    1.000
    C104     C        0.16314    0.34900    0.20530    1.000
    H54      H        0.19110    0.40150    0.20680    1.000
    C105     C        0.11558    0.30880    0.13260    1.000
    H55      H        0.11350    0.33390    0.08790    1.000
    Cd11     Cd       0.67511    0.70255    0.45175    1.000
    Cd12     Cd       0.54293    0.52170    0.36461    1.000
    O31      O        0.59432    0.70890    0.45940    1.000
    O32      O        0.76162    0.34900    0.95564    1.000
    O33      O        0.79924    0.03460    0.97022    1.000
    N16      N        0.57156    0.61530    0.28797    1.000
    O34      O        0.83550    0.43580    0.06214    1.000
    N17      N        0.54496    0.62200    0.21117    1.000
    O35      O        0.55212    0.54610    0.47964    1.000
    N18      N        0.62090    0.68240    0.32386    1.000
    O36      O        0.86829    0.91880    0.07015    1.000
    C106     C        0.62669    0.73510    0.26807    1.000
    C107     C        0.73831    0.58460    0.87565    1.000
    H56      H        0.71930    0.50930    0.84860    1.000
    C108     C        0.68487    0.70250    0.74993    1.000
    C109     C        0.77874    0.57700    0.95471    1.000
    C110     C        0.58537    0.64340    0.50386    1.000
    C111     C        0.80777    0.68820    0.99605    1.000
    H57      H        0.83560    0.68320    0.04890    1.000
    C112     C        0.72543    0.70160    0.83566    1.000
    C113     C        0.79281    0.44750    0.99441    1.000
    C114     C        0.79495    0.80640    0.95797    1.000
    C115     C        0.75411    0.81300    0.87838    1.000
    H58      H        0.74580    0.89310    0.85330    1.000
    C116     C        0.82384    0.92900    0.00324    1.000
    C117     C        0.57850    0.69710    0.19672    1.000
    C118     C        0.69385    0.78010    0.70280    1.000
    H59      H        0.72320    0.84180    0.72520    1.000
    C119     C        0.57263    0.73400    0.12650    1.000
    H60      H        0.54100    0.70830    0.07850    1.000
    C120     C        0.66004    0.76790    0.62280    1.000
    H61      H        0.66670    0.82150    0.59220    1.000
    C121     C        0.61614    0.67560    0.58831    1.000
    C122     C        0.60442    0.60370    0.63523    1.000
    H62      H        0.57360    0.54560    0.61280    1.000
    C123     C        0.63801    0.61750    0.71484    1.000
    H63      H        0.62920    0.56950    0.74530    1.000
    C124     C        0.66981    0.81440    0.27320    1.000
    H64      H        0.70140    0.84200    0.32070    1.000
    C125     C        0.66314    0.84900    0.20530    1.000
    H65      H        0.69110    0.90150    0.20680    1.000
    C126     C        0.61558    0.80880    0.13260    1.000
    H66      H        0.61350    0.83390    0.08790    1.000
    Cd13     Cd       0.82489    0.20255    0.04825    1.000
    Cd14     Cd       0.95707    0.02170    0.13539    1.000
    O37      O        0.90568    0.20890    0.04060    1.000
    O38      O        0.73838    0.84900    0.54436    1.000
    O39      O        0.70076    0.53460    0.52978    1.000
    N19      N        0.92844    0.11530    0.21203    1.000
    O40      O        0.66450    0.93580    0.43786    1.000
    N20      N        0.95504    0.12200    0.28883    1.000
    O41      O        0.94788    0.04610    0.02036    1.000
    N21      N        0.87910    0.18240    0.17614    1.000
    O42      O        0.63171    0.41880    0.42985    1.000
    C127     C        0.87331    0.23510    0.23193    1.000
    C128     C        0.76169    0.08460    0.62435    1.000
    H67      H        0.78070    0.00930    0.65140    1.000
    C129     C        0.81513    0.20250    0.75007    1.000
    C130     C        0.72126    0.07700    0.54529    1.000
    C131     C        0.91463    0.14340    0.99614    1.000
    C132     C        0.69223    0.18820    0.50395    1.000
    H68      H        0.66440    0.18320    0.45110    1.000
    C133     C        0.77457    0.20160    0.66434    1.000
    C134     C        0.70719    0.94750    0.50559    1.000
    C135     C        0.70505    0.30640    0.54203    1.000
    C136     C        0.74589    0.31300    0.62162    1.000
    H69      H        0.75420    0.39310    0.64670    1.000
    C137     C        0.67616    0.42900    0.49676    1.000
    C138     C        0.92150    0.19710    0.30328    1.000
    C139     C        0.80615    0.28010    0.79720    1.000
    H70      H        0.77680    0.34180    0.77480    1.000
    C140     C        0.92737    0.23400    0.37350    1.000
    H71      H        0.95900    0.20830    0.42150    1.000
    C141     C        0.83996    0.26790    0.87720    1.000
    H72      H        0.83330    0.32150    0.90780    1.000
    C142     C        0.88386    0.17560    0.91169    1.000
    C143     C        0.89558    0.10370    0.86477    1.000
    H73      H        0.92640    0.04560    0.88720    1.000
    C144     C        0.86199    0.11750    0.78516    1.000
    H74      H        0.87080    0.06950    0.75470    1.000
    C145     C        0.83019    0.31440    0.22680    1.000
    H75      H        0.79860    0.34200    0.17930    1.000
    C146     C        0.83686    0.34900    0.29470    1.000
    H76      H        0.80890    0.40150    0.29320    1.000
    C147     C        0.88442    0.30880    0.36740    1.000
    H77      H        0.88650    0.33390    0.41210    1.000
    Cd15     Cd       0.32489    0.70255    0.04825    1.000
    Cd16     Cd       0.45707    0.52170    0.13539    1.000
    O43      O        0.40568    0.70890    0.04060    1.000
    O44      O        0.23838    0.34900    0.54436    1.000
    O45      O        0.20076    0.03460    0.52978    1.000
    N22      N        0.42844    0.61530    0.21203    1.000
    O46      O        0.16450    0.43580    0.43786    1.000
    N23      N        0.45504    0.62200    0.28883    1.000
    O47      O        0.44788    0.54610    0.02036    1.000
    N24      N        0.37910    0.68240    0.17614    1.000
    O48      O        0.13171    0.91880    0.42985    1.000
    C148     C        0.37331    0.73510    0.23193    1.000
    C149     C        0.26169    0.58460    0.62435    1.000
    H78      H        0.28070    0.50930    0.65140    1.000
    C150     C        0.31513    0.70250    0.75007    1.000
    C151     C        0.22126    0.57700    0.54529    1.000
    C152     C        0.41463    0.64340    0.99614    1.000
    C153     C        0.19223    0.68820    0.50395    1.000
    H79      H        0.16440    0.68320    0.45110    1.000
    C154     C        0.27457    0.70160    0.66434    1.000
    C155     C        0.20719    0.44750    0.50559    1.000
    C156     C        0.20505    0.80640    0.54203    1.000
    C157     C        0.24589    0.81300    0.62162    1.000
    H80      H        0.25420    0.89310    0.64670    1.000
    C158     C        0.17616    0.92900    0.49676    1.000
    C159     C        0.42150    0.69710    0.30328    1.000
    C160     C        0.30615    0.78010    0.79720    1.000
    H81      H        0.27680    0.84180    0.77480    1.000
    C161     C        0.42737    0.73400    0.37350    1.000
    H82      H        0.45900    0.70830    0.42150    1.000
    C162     C        0.33996    0.76790    0.87720    1.000
    H83      H        0.33330    0.82150    0.90780    1.000
    C163     C        0.38386    0.67560    0.91169    1.000
    C164     C        0.39558    0.60370    0.86477    1.000
    H84      H        0.42640    0.54560    0.88720    1.000
    C165     C        0.36199    0.61750    0.78516    1.000
    H85      H        0.37080    0.56950    0.75470    1.000
    C166     C        0.33019    0.81440    0.22680    1.000
    H86      H        0.29860    0.84200    0.17930    1.000
    C167     C        0.33686    0.84900    0.29470    1.000
    H87      H        0.30890    0.90150    0.29320    1.000
    C168     C        0.38442    0.80880    0.36740    1.000
    H88      H        0.38650    0.83390    0.41210    1.000
