# CIF file generated by openbabel 3.1.0, see https://openbabel.org
data_I
_chemical_name_common 'image0'
_cell_length_a 11.9482
_cell_length_b 11.9482
_cell_length_c 30.657
_cell_angle_alpha 90
_cell_angle_beta 90
_cell_angle_gamma 90
_space_group_name_H-M_alt 'P 1'
_space_group_name_Hall 'P 1'
loop_
    _symmetry_equiv_pos_as_xyz
    x,y,z
loop_
    _atom_site_label
    _atom_site_type_symbol
    _atom_site_fract_x
    _atom_site_fract_y
    _atom_site_fract_z
    _atom_site_occupancy
    O1       O        0.37350    0.49620    0.93980    1.000
    C1       C        0.31290    0.34690    0.90530    1.000
    C2       C        0.30500    0.68900    0.90930    1.000
    O2       O        0.43100    0.65100    0.96910    1.000
    O3       O        0.43440    0.34870    0.96630    1.000
    C3       C        0.30600    0.77600    0.90780    1.000
    C4       C        0.32000    0.22500    0.90480    1.000
    C5       C        0.37050    0.40520    0.93790    1.000
    C6       C        0.36900    0.61600    0.94460    1.000
    O4       O        0.87350    0.99620    0.43980    1.000
    C7       C        0.81290    0.84690    0.40530    1.000
    C8       C        0.80500    0.18900    0.40930    1.000
    O5       O        0.93100    0.15100    0.46910    1.000
    O6       O        0.93440    0.84870    0.46630    1.000
    C9       C        0.80600    0.27600    0.40780    1.000
    C10      C        0.82000    0.72500    0.40480    1.000
    C11      C        0.87050    0.90520    0.43790    1.000
    C12      C        0.86900    0.11600    0.44460    1.000
    O7       O        0.12650    0.00380    0.43980    1.000
    C13      C        0.18710    0.15310    0.40530    1.000
    C14      C        0.19500    0.81100    0.40930    1.000
    O8       O        0.06900    0.84900    0.46910    1.000
    O9       O        0.06560    0.15130    0.46630    1.000
    C15      C        0.19400    0.72400    0.40780    1.000
    C16      C        0.18000    0.27500    0.40480    1.000
    C17      C        0.12950    0.09480    0.43790    1.000
    C18      C        0.13100    0.88400    0.44460    1.000
    O10      O        0.62650    0.50380    0.93980    1.000
    C19      C        0.68710    0.65310    0.90530    1.000
    C20      C        0.69500    0.31100    0.90930    1.000
    O11      O        0.56900    0.34900    0.96910    1.000
    O12      O        0.56560    0.65130    0.96630    1.000
    C21      C        0.69400    0.22400    0.90780    1.000
    C22      C        0.68000    0.77500    0.90480    1.000
    C23      C        0.62950    0.59480    0.93790    1.000
    C24      C        0.63100    0.38400    0.94460    1.000
    O13      O        0.50380    0.87350    0.18980    1.000
    C25      C        0.65310    0.81290    0.15530    1.000
    C26      C        0.31100    0.80500    0.15930    1.000
    O14      O        0.34900    0.93100    0.21910    1.000
    O15      O        0.65130    0.93440    0.21630    1.000
    C27      C        0.22400    0.80600    0.15780    1.000
    C28      C        0.77500    0.82000    0.15480    1.000
    C29      C        0.59480    0.87050    0.18790    1.000
    C30      C        0.38400    0.86900    0.19460    1.000
    O16      O        0.00380    0.37350    0.68980    1.000
    C31      C        0.15310    0.31290    0.65530    1.000
    C32      C        0.81100    0.30500    0.65930    1.000
    O17      O        0.84900    0.43100    0.71910    1.000
    O18      O        0.15130    0.43440    0.71630    1.000
    C33      C        0.72400    0.30600    0.65780    1.000
    C34      C        0.27500    0.32000    0.65480    1.000
    C35      C        0.09480    0.37050    0.68790    1.000
    C36      C        0.88400    0.36900    0.69460    1.000
    O19      O        0.99620    0.62650    0.68980    1.000
    C37      C        0.84690    0.68710    0.65530    1.000
    C38      C        0.18900    0.69500    0.65930    1.000
    O20      O        0.15100    0.56900    0.71910    1.000
    O21      O        0.84870    0.56560    0.71630    1.000
    C39      C        0.27600    0.69400    0.65780    1.000
    C40      C        0.72500    0.68000    0.65480    1.000
    C41      C        0.90520    0.62950    0.68790    1.000
    C42      C        0.11600    0.63100    0.69460    1.000
    O22      O        0.49620    0.12650    0.18980    1.000
    C43      C        0.34690    0.18710    0.15530    1.000
    C44      C        0.68900    0.19500    0.15930    1.000
    O23      O        0.65100    0.06900    0.21910    1.000
    O24      O        0.34870    0.06560    0.21630    1.000
    C45      C        0.77600    0.19400    0.15780    1.000
    C46      C        0.22500    0.18000    0.15480    1.000
    C47      C        0.40520    0.12950    0.18790    1.000
    C48      C        0.61600    0.13100    0.19460    1.000
    O25      O        0.12650    0.49620    0.81020    1.000
    C49      C        0.18710    0.34690    0.84470    1.000
    C50      C        0.19500    0.68900    0.84070    1.000
    O26      O        0.06900    0.65100    0.78090    1.000
    O27      O        0.06560    0.34870    0.78370    1.000
    C51      C        0.19400    0.77600    0.84220    1.000
    C52      C        0.18000    0.22500    0.84520    1.000
    C53      C        0.12950    0.40520    0.81210    1.000
    C54      C        0.13100    0.61600    0.80540    1.000
    O28      O        0.62650    0.99620    0.31020    1.000
    C55      C        0.68710    0.84690    0.34470    1.000
    C56      C        0.69500    0.18900    0.34070    1.000
    O29      O        0.56900    0.15100    0.28090    1.000
    O30      O        0.56560    0.84870    0.28370    1.000
    C57      C        0.69400    0.27600    0.34220    1.000
    C58      C        0.68000    0.72500    0.34520    1.000
    C59      C        0.62950    0.90520    0.31210    1.000
    C60      C        0.63100    0.11600    0.30540    1.000
    O31      O        0.37350    0.00380    0.31020    1.000
    C61      C        0.31290    0.15310    0.34470    1.000
    C62      C        0.30500    0.81100    0.34070    1.000
    O32      O        0.43100    0.84900    0.28090    1.000
    O33      O        0.43440    0.15130    0.28370    1.000
    C63      C        0.30600    0.72400    0.34220    1.000
    C64      C        0.32000    0.27500    0.34520    1.000
    C65      C        0.37050    0.09480    0.31210    1.000
    C66      C        0.36900    0.88400    0.30540    1.000
    O34      O        0.87350    0.50380    0.81020    1.000
    C67      C        0.81290    0.65310    0.84470    1.000
    C68      C        0.80500    0.31100    0.84070    1.000
    O35      O        0.93100    0.34900    0.78090    1.000
    O36      O        0.93440    0.65130    0.78370    1.000
    C69      C        0.80600    0.22400    0.84220    1.000
    C70      C        0.82000    0.77500    0.84520    1.000
    C71      C        0.87050    0.59480    0.81210    1.000
    C72      C        0.86900    0.38400    0.80540    1.000
    O37      O        0.99620    0.87350    0.56020    1.000
    C73      C        0.84690    0.81290    0.59470    1.000
    C74      C        0.18900    0.80500    0.59070    1.000
    O38      O        0.15100    0.93100    0.53090    1.000
    O39      O        0.84870    0.93440    0.53370    1.000
    C75      C        0.27600    0.80600    0.59220    1.000
    C76      C        0.72500    0.82000    0.59520    1.000
    C77      C        0.90520    0.87050    0.56210    1.000
    C78      C        0.11600    0.86900    0.55540    1.000
    O40      O        0.49620    0.37350    0.06020    1.000
    C79      C        0.34690    0.31290    0.09470    1.000
    C80      C        0.68900    0.30500    0.09070    1.000
    O41      O        0.65100    0.43100    0.03090    1.000
    O42      O        0.34870    0.43440    0.03370    1.000
    C81      C        0.77600    0.30600    0.09220    1.000
    C82      C        0.22500    0.32000    0.09520    1.000
    C83      C        0.40520    0.37050    0.06210    1.000
    C84      C        0.61600    0.36900    0.05540    1.000
    O43      O        0.50380    0.62650    0.06020    1.000
    C85      C        0.65310    0.68710    0.09470    1.000
    C86      C        0.31100    0.69500    0.09070    1.000
    O44      O        0.34900    0.56900    0.03090    1.000
    O45      O        0.65130    0.56560    0.03370    1.000
    C87      C        0.22400    0.69400    0.09220    1.000
    C88      C        0.77500    0.68000    0.09520    1.000
    C89      C        0.59480    0.62950    0.06210    1.000
    C90      C        0.38400    0.63100    0.05540    1.000
    O46      O        0.00380    0.12650    0.56020    1.000
    C91      C        0.15310    0.18710    0.59470    1.000
    C92      C        0.81100    0.19500    0.59070    1.000
    O47      O        0.84900    0.06900    0.53090    1.000
    O48      O        0.15130    0.06560    0.53370    1.000
    C93      C        0.72400    0.19400    0.59220    1.000
    C94      C        0.27500    0.18000    0.59520    1.000
    C95      C        0.09480    0.12950    0.56210    1.000
    C96      C        0.88400    0.13100    0.55540    1.000
    In1      In       0.50000    0.50000    0.00000    1.000
    In2      In       0.00000    0.00000    0.50000    1.000
    In3      In       0.50000    0.00000    0.25000    1.000
    In4      In       0.00000    0.50000    0.75000    1.000
    C97      C        0.25000    0.39390    0.87500    1.000
    C98      C        0.25000    0.83870    0.87500    1.000
    N1       N        0.25000    0.95000    0.87500    1.000
    C99      C        0.75000    0.89390    0.37500    1.000
    C100     C        0.75000    0.33870    0.37500    1.000
    N2       N        0.75000    0.45000    0.37500    1.000
    C101     C        0.25000    0.10610    0.37500    1.000
    C102     C        0.25000    0.66130    0.37500    1.000
    N3       N        0.25000    0.55000    0.37500    1.000
    C103     C        0.75000    0.60610    0.87500    1.000
    C104     C        0.75000    0.16130    0.87500    1.000
    N4       N        0.75000    0.05000    0.87500    1.000
    C105     C        0.60610    0.75000    0.12500    1.000
    C106     C        0.16130    0.75000    0.12500    1.000
    N5       N        0.05000    0.75000    0.12500    1.000
    C107     C        0.10610    0.25000    0.62500    1.000
    C108     C        0.66130    0.25000    0.62500    1.000
    N6       N        0.55000    0.25000    0.62500    1.000
    C109     C        0.89390    0.75000    0.62500    1.000
    C110     C        0.33870    0.75000    0.62500    1.000
    N7       N        0.45000    0.75000    0.62500    1.000
    C111     C        0.39390    0.25000    0.12500    1.000
    C112     C        0.83870    0.25000    0.12500    1.000
    N8       N        0.95000    0.25000    0.12500    1.000
