# CIF file generated by openbabel 3.1.0, see https://openbabel.org
data_I
_chemical_name_common 'image0'
_cell_length_a 13.6144
_cell_length_b 13.6144
_cell_length_c 8.1842
_cell_angle_alpha 90
_cell_angle_beta 90
_cell_angle_gamma 120
_space_group_name_H-M_alt 'P 1'
_space_group_name_Hall 'P 1'
loop_
    _symmetry_equiv_pos_as_xyz
    x,y,z
loop_
    _atom_site_label
    _atom_site_type_symbol
    _atom_site_fract_x
    _atom_site_fract_y
    _atom_site_fract_z
    _atom_site_occupancy
    Mn1      Mn       0.29539    0.33438    0.54368    1.000
    O1       O        0.22850    0.18060    0.40460    1.000
    C1       C        0.52980    0.32110    0.55430    1.000
    C2       C        0.35400    0.55570    0.77590    1.000
    O2       O        0.24460    0.05900    0.24610    1.000
    C3       C        0.26670    0.15900    0.28040    1.000
    N1       N        0.34520    0.21020    0.00430    1.000
    H1       H        0.40950    0.25790    0.95100    1.000
    H2       H        0.28580    0.20150    0.94480    1.000
    C4       C        0.34400    0.25530    0.16670    1.000
    H3       H        0.42090    0.28710    0.21050    1.000
    N2       N        0.36310    0.42550    0.30770    1.000
    H4       H        0.34640    0.48150    0.30020    1.000
    H5       H        0.43910    0.45780    0.30840    1.000
    C5       C        0.31840    0.35260    0.16160    1.000
    H6       H        0.35230    0.39790    0.06440    1.000
    H7       H        0.23710    0.32180    0.15530    1.000
    N3       N        0.44950    0.31950    0.60270    1.000
    N4       N        0.36590    0.49520    0.69190    1.000
    Mn2      Mn       0.66562    0.96101    0.54368    1.000
    O3       O        0.81940    0.04790    0.40460    1.000
    C6       C        0.67890    0.20870    0.55430    1.000
    C7       C        0.44430    0.79830    0.77590    1.000
    O4       O        0.94100    0.18560    0.24610    1.000
    C8       C        0.84100    0.10770    0.28040    1.000
    N5       N        0.78980    0.13500    0.00430    1.000
    H8       H        0.74210    0.15160    0.95100    1.000
    H9       H        0.79850    0.08430    0.94480    1.000
    C9       C        0.74470    0.08870    0.16670    1.000
    H10      H        0.71290    0.13380    0.21050    1.000
    N6       N        0.57450    0.93760    0.30770    1.000
    H11      H        0.51850    0.86490    0.30020    1.000
    H12      H        0.54220    0.98130    0.30840    1.000
    C10      C        0.64740    0.96580    0.16160    1.000
    H13      H        0.60210    0.95440    0.06440    1.000
    H14      H        0.67820    0.91530    0.15530    1.000
    N7       N        0.68050    0.13000    0.60270    1.000
    N8       N        0.50480    0.87070    0.69190    1.000
    Mn3      Mn       0.03899    0.70461    0.54368    1.000
    O5       O        0.95210    0.77150    0.40460    1.000
    C11      C        0.79130    0.47020    0.55430    1.000
    C12      C        0.20170    0.64600    0.77590    1.000
    O6       O        0.81440    0.75540    0.24610    1.000
    C13      C        0.89230    0.73330    0.28040    1.000
    N9       N        0.86500    0.65480    0.00430    1.000
    H15      H        0.84840    0.59050    0.95100    1.000
    H16      H        0.91570    0.71420    0.94480    1.000
    C14      C        0.91130    0.65600    0.16670    1.000
    H17      H        0.86620    0.57910    0.21050    1.000
    N10      N        0.06240    0.63690    0.30770    1.000
    H18      H        0.13510    0.65360    0.30020    1.000
    H19      H        0.01870    0.56090    0.30840    1.000
    C15      C        0.03420    0.68160    0.16160    1.000
    H20      H        0.04560    0.64770    0.06440    1.000
    H21      H        0.08470    0.76290    0.15530    1.000
    N11      N        0.87000    0.55050    0.60270    1.000
    N12      N        0.12930    0.63410    0.69190    1.000
    Mn4      Mn       0.70461    0.66562    0.04368    1.000
    O7       O        0.77150    0.81940    0.90460    1.000
    C16      C        0.47020    0.67890    0.05430    1.000
    C17      C        0.64600    0.44430    0.27590    1.000
    O8       O        0.75540    0.94100    0.74610    1.000
    C18      C        0.73330    0.84100    0.78040    1.000
    N13      N        0.65480    0.78980    0.50430    1.000
    H22      H        0.59050    0.74210    0.45100    1.000
    H23      H        0.71420    0.79850    0.44480    1.000
    C19      C        0.65600    0.74470    0.66670    1.000
    H24      H        0.57910    0.71290    0.71050    1.000
    N14      N        0.63690    0.57450    0.80770    1.000
    H25      H        0.65360    0.51850    0.80020    1.000
    H26      H        0.56090    0.54220    0.80840    1.000
    C20      C        0.68160    0.64740    0.66160    1.000
    H27      H        0.64770    0.60210    0.56440    1.000
    H28      H        0.76290    0.67820    0.65530    1.000
    N15      N        0.55050    0.68050    0.10270    1.000
    N16      N        0.63410    0.50480    0.19190    1.000
    Mn5      Mn       0.33438    0.03899    0.04368    1.000
    O9       O        0.18060    0.95210    0.90460    1.000
    C21      C        0.32110    0.79130    0.05430    1.000
    C22      C        0.55570    0.20170    0.27590    1.000
    O10      O        0.05900    0.81440    0.74610    1.000
    C23      C        0.15900    0.89230    0.78040    1.000
    N17      N        0.21020    0.86500    0.50430    1.000
    H29      H        0.25790    0.84840    0.45100    1.000
    H30      H        0.20150    0.91570    0.44480    1.000
    C24      C        0.25530    0.91130    0.66670    1.000
    H31      H        0.28710    0.86620    0.71050    1.000
    N18      N        0.42550    0.06240    0.80770    1.000
    H32      H        0.48150    0.13510    0.80020    1.000
    H33      H        0.45780    0.01870    0.80840    1.000
    C25      C        0.35260    0.03420    0.66160    1.000
    H34      H        0.39790    0.04560    0.56440    1.000
    H35      H        0.32180    0.08470    0.65530    1.000
    N19      N        0.31950    0.87000    0.10270    1.000
    N20      N        0.49520    0.12930    0.19190    1.000
    Mn6      Mn       0.96101    0.29539    0.04368    1.000
    O11      O        0.04790    0.22850    0.90460    1.000
    C26      C        0.20870    0.52980    0.05430    1.000
    C27      C        0.79830    0.35400    0.27590    1.000
    O12      O        0.18560    0.24460    0.74610    1.000
    C28      C        0.10770    0.26670    0.78040    1.000
    N21      N        0.13500    0.34520    0.50430    1.000
    H36      H        0.15160    0.40950    0.45100    1.000
    H37      H        0.08430    0.28580    0.44480    1.000
    C29      C        0.08870    0.34400    0.66670    1.000
    H38      H        0.13380    0.42090    0.71050    1.000
    N22      N        0.93760    0.36310    0.80770    1.000
    H39      H        0.86490    0.34640    0.80020    1.000
    H40      H        0.98130    0.43910    0.80840    1.000
    C30      C        0.96580    0.31840    0.66160    1.000
    H41      H        0.95440    0.35230    0.56440    1.000
    H42      H        0.91530    0.23710    0.65530    1.000
    N23      N        0.13000    0.44950    0.10270    1.000
    N24      N        0.87070    0.36590    0.19190    1.000
    Cr1      Cr       0.33333    0.66667    0.92497    1.000
    Cr2      Cr       0.66667    0.33333    0.42497    1.000
