# CIF file generated by openbabel 3.1.0, see https://openbabel.org
data_I
_chemical_name_common 'MODNOI_ion_b'
_cell_length_a 13.718
_cell_length_b 27.232
_cell_length_c 13.639
_cell_angle_alpha 90
_cell_angle_beta 90
_cell_angle_gamma 90
_space_group_name_H-M_alt 'P 1'
_space_group_name_Hall 'P 1'
loop_
    _symmetry_equiv_pos_as_xyz
    x,y,z
loop_
    _atom_site_label
    _atom_site_type_symbol
    _atom_site_fract_x
    _atom_site_fract_y
    _atom_site_fract_z
    _atom_site_occupancy
    Cd1      Cd       0.83374    0.87367    0.99599    1.000
    Cd2      Cd       0.47048    0.80752    0.13743    1.000
    Cd3      Cd       0.22245    0.92530    0.89199    1.000
    N4       N        0.68030    0.84980    0.04290    1.000
    C5       C        0.61030    0.83490    0.07510    1.000
    N6       N        0.89420    0.85810    0.15380    1.000
    C7       C        0.92010    0.84170    0.22450    1.000
    N8       N        0.99080    0.89820    0.94820    1.000
    C9       C        0.06980    0.90450    0.92750    1.000
    N10      N        0.77920    0.90140    0.84100    1.000
    C11      C        0.75710    0.91070    0.76540    1.000
    N12      N        0.37710    0.86690    0.03740    1.000
    C13      C        0.32770    0.88760    0.99000    1.000
    N14      N        0.80010    0.95530    0.05000    1.000
    C15      C        0.78810    0.99400    0.07360    1.000
    N16      N        0.87110    0.79490    0.94470    1.000
    C17      C        0.90240    0.76070    0.91710    1.000
    N19      N        0.54570    0.98410    0.24890    1.000
    C20      C        0.56640    0.94870    0.18560    1.000
    H21      H        0.59250    0.91940    0.20870    1.000
    C22      C        0.55030    0.95410    0.08640    1.000
    H23      H        0.56820    0.92940    0.04300    1.000
    C24      C        0.50820    0.99590    0.05290    1.000
    C25      C        0.48800    0.03340    0.11960    1.000
    H26      H        0.45990    0.06250    0.09770    1.000
    C27      C        0.50800    0.02760    0.21600    1.000
    H28      H        0.49660    0.05310    0.25980    1.000
    C29      C        0.56460    0.97700    0.35720    1.000
    H30      H        0.51790    0.95430    0.38360    1.000
    H31      H        0.55880    0.00800    0.39030    1.000
    H32      H        0.62920    0.96420    0.36650    1.000
    Cd33     Cd       0.66626    0.12633    0.49599    1.000
    Cd34     Cd       0.02952    0.19248    0.63743    1.000
    Cd35     Cd       0.27755    0.07470    0.39199    1.000
    N36      N        0.81970    0.15020    0.54290    1.000
    C37      C        0.88970    0.16510    0.57510    1.000
    N38      N        0.60580    0.14190    0.65380    1.000
    C39      C        0.57990    0.15830    0.72450    1.000
    N40      N        0.50920    0.10180    0.44820    1.000
    C41      C        0.43020    0.09550    0.42750    1.000
    N42      N        0.72080    0.09860    0.34100    1.000
    C43      C        0.74290    0.08930    0.26540    1.000
    N44      N        0.12290    0.13310    0.53740    1.000
    C45      C        0.17230    0.11240    0.49000    1.000
    N46      N        0.69990    0.04470    0.55000    1.000
    C47      C        0.71190    0.00600    0.57360    1.000
    N48      N        0.62890    0.20510    0.44470    1.000
    C49      C        0.59760    0.23930    0.41710    1.000
    N51      N        0.95430    0.01590    0.74890    1.000
    C52      C        0.93360    0.05130    0.68560    1.000
    H53      H        0.90750    0.08060    0.70870    1.000
    C54      C        0.94970    0.04590    0.58640    1.000
    H55      H        0.93180    0.07060    0.54300    1.000
    C56      C        0.99180    0.00410    0.55290    1.000
    C57      C        0.01200    0.96660    0.61960    1.000
    H58      H        0.04010    0.93750    0.59770    1.000
    C59      C        0.99200    0.97240    0.71600    1.000
    H60      H        0.00340    0.94690    0.75980    1.000
    C61      C        0.93540    0.02300    0.85720    1.000
    H62      H        0.98210    0.04570    0.88360    1.000
    H63      H        0.94120    0.99200    0.89030    1.000
    H64      H        0.87080    0.03580    0.86650    1.000
    Cd65     Cd       0.16626    0.37367    0.50401    1.000
    Cd66     Cd       0.52952    0.30752    0.36257    1.000
    Cd67     Cd       0.77755    0.42530    0.60801    1.000
    N68      N        0.31970    0.34980    0.45710    1.000
    C69      C        0.38970    0.33490    0.42490    1.000
    N70      N        0.10580    0.35810    0.34620    1.000
    C71      C        0.07990    0.34170    0.27550    1.000
    N72      N        0.00920    0.39820    0.55180    1.000
    C73      C        0.93020    0.40450    0.57250    1.000
    N74      N        0.22080    0.40140    0.65900    1.000
    C75      C        0.24290    0.41070    0.73460    1.000
    N76      N        0.62290    0.36690    0.46260    1.000
    C77      C        0.67230    0.38760    0.51000    1.000
    N78      N        0.19990    0.45530    0.45000    1.000
    C79      C        0.21190    0.49400    0.42640    1.000
    N80      N        0.12890    0.29490    0.55530    1.000
    C81      C        0.09760    0.26070    0.58290    1.000
    N83      N        0.45430    0.48410    0.25110    1.000
    C84      C        0.43360    0.44870    0.31440    1.000
    H85      H        0.40750    0.41940    0.29130    1.000
    C86      C        0.44970    0.45410    0.41360    1.000
    H87      H        0.43180    0.42940    0.45700    1.000
    C88      C        0.49180    0.49590    0.44710    1.000
    C89      C        0.51200    0.53340    0.38040    1.000
    H90      H        0.54010    0.56250    0.40230    1.000
    C91      C        0.49200    0.52760    0.28400    1.000
    H92      H        0.50340    0.55310    0.24020    1.000
    C93      C        0.43540    0.47700    0.14280    1.000
    H94      H        0.48210    0.45430    0.11640    1.000
    H95      H        0.44120    0.50800    0.10970    1.000
    H96      H        0.37080    0.46420    0.13350    1.000
    Cd97     Cd       0.33374    0.62633    0.00401    1.000
    Cd98     Cd       0.97048    0.69248    0.86257    1.000
    Cd99     Cd       0.72245    0.57470    0.10801    1.000
    N100     N        0.18030    0.65020    0.95710    1.000
    C101     C        0.11030    0.66510    0.92490    1.000
    N102     N        0.39420    0.64190    0.84620    1.000
    C103     C        0.42010    0.65830    0.77550    1.000
    N104     N        0.49080    0.60180    0.05180    1.000
    C105     C        0.56980    0.59550    0.07250    1.000
    N106     N        0.27920    0.59860    0.15900    1.000
    C107     C        0.25710    0.58930    0.23460    1.000
    N108     N        0.87710    0.63310    0.96260    1.000
    C109     C        0.82770    0.61240    0.01000    1.000
    N110     N        0.30010    0.54470    0.95000    1.000
    C111     C        0.28810    0.50600    0.92640    1.000
    N112     N        0.37110    0.70510    0.05530    1.000
    C113     C        0.40240    0.73930    0.08290    1.000
    N115     N        0.04570    0.51590    0.75110    1.000
    C116     C        0.06640    0.55130    0.81440    1.000
    H117     H        0.09250    0.58060    0.79130    1.000
    C118     C        0.05030    0.54590    0.91360    1.000
    H119     H        0.06820    0.57060    0.95700    1.000
    C120     C        0.00820    0.50410    0.94710    1.000
    C121     C        0.98800    0.46660    0.88040    1.000
    H122     H        0.95990    0.43750    0.90230    1.000
    C123     C        0.00800    0.47240    0.78400    1.000
    H124     H        0.99660    0.44690    0.74020    1.000
    C125     C        0.06460    0.52300    0.64280    1.000
    H126     H        0.01790    0.54570    0.61640    1.000
    H127     H        0.05880    0.49200    0.60970    1.000
    H128     H        0.12920    0.53580    0.63350    1.000
    Cd129    Cd       0.16626    0.12633    0.00401    1.000
    Cd130    Cd       0.52952    0.19248    0.86257    1.000
    Cd131    Cd       0.77755    0.07470    0.10801    1.000
    N132     N        0.31970    0.15020    0.95710    1.000
    C133     C        0.38970    0.16510    0.92490    1.000
    N134     N        0.10580    0.14190    0.84620    1.000
    C135     C        0.07990    0.15830    0.77550    1.000
    N136     N        0.00920    0.10180    0.05180    1.000
    C137     C        0.93020    0.09550    0.07250    1.000
    N138     N        0.22080    0.09860    0.15900    1.000
    C139     C        0.24290    0.08930    0.23460    1.000
    N140     N        0.62290    0.13310    0.96260    1.000
    C141     C        0.67230    0.11240    0.01000    1.000
    N142     N        0.19990    0.04470    0.95000    1.000
    C143     C        0.21190    0.00600    0.92640    1.000
    N144     N        0.12890    0.20510    0.05530    1.000
    C145     C        0.09760    0.23930    0.08290    1.000
    N147     N        0.45430    0.01590    0.75110    1.000
    C148     C        0.43360    0.05130    0.81440    1.000
    H149     H        0.40750    0.08060    0.79130    1.000
    C150     C        0.44970    0.04590    0.91360    1.000
    H151     H        0.43180    0.07060    0.95700    1.000
    C152     C        0.49180    0.00410    0.94710    1.000
    C153     C        0.51200    0.96660    0.88040    1.000
    H154     H        0.54010    0.93750    0.90230    1.000
    C155     C        0.49200    0.97240    0.78400    1.000
    H156     H        0.50340    0.94690    0.74020    1.000
    C157     C        0.43540    0.02300    0.64280    1.000
    H158     H        0.48210    0.04570    0.61640    1.000
    H159     H        0.44120    0.99200    0.60970    1.000
    H160     H        0.37080    0.03580    0.63350    1.000
    Cd161    Cd       0.33374    0.87367    0.50401    1.000
    Cd162    Cd       0.97048    0.80752    0.36257    1.000
    Cd163    Cd       0.72245    0.92530    0.60801    1.000
    N164     N        0.18030    0.84980    0.45710    1.000
    C165     C        0.11030    0.83490    0.42490    1.000
    N166     N        0.39420    0.85810    0.34620    1.000
    C167     C        0.42010    0.84170    0.27550    1.000
    N168     N        0.49080    0.89820    0.55180    1.000
    C169     C        0.56980    0.90450    0.57250    1.000
    N170     N        0.27920    0.90140    0.65900    1.000
    C171     C        0.25710    0.91070    0.73460    1.000
    N172     N        0.87710    0.86690    0.46260    1.000
    C173     C        0.82770    0.88760    0.51000    1.000
    N174     N        0.30010    0.95530    0.45000    1.000
    C175     C        0.28810    0.99400    0.42640    1.000
    N176     N        0.37110    0.79490    0.55530    1.000
    C177     C        0.40240    0.76070    0.58290    1.000
    N179     N        0.04570    0.98410    0.25110    1.000
    C180     C        0.06640    0.94870    0.31440    1.000
    H181     H        0.09250    0.91940    0.29130    1.000
    C182     C        0.05030    0.95410    0.41360    1.000
    H183     H        0.06820    0.92940    0.45700    1.000
    C184     C        0.00820    0.99590    0.44710    1.000
    C185     C        0.98800    0.03340    0.38040    1.000
    H186     H        0.95990    0.06250    0.40230    1.000
    C187     C        0.00800    0.02760    0.28400    1.000
    H188     H        0.99660    0.05310    0.24020    1.000
    C189     C        0.06460    0.97700    0.14280    1.000
    H190     H        0.01790    0.95430    0.11640    1.000
    H191     H        0.05880    0.00800    0.10970    1.000
    H192     H        0.12920    0.96420    0.13350    1.000
    Cd193    Cd       0.83374    0.62633    0.49599    1.000
    Cd194    Cd       0.47048    0.69248    0.63743    1.000
    Cd195    Cd       0.22245    0.57470    0.39199    1.000
    N196     N        0.68030    0.65020    0.54290    1.000
    C197     C        0.61030    0.66510    0.57510    1.000
    N198     N        0.89420    0.64190    0.65380    1.000
    C199     C        0.92010    0.65830    0.72450    1.000
    N200     N        0.99080    0.60180    0.44820    1.000
    C201     C        0.06980    0.59550    0.42750    1.000
    N202     N        0.77920    0.59860    0.34100    1.000
    C203     C        0.75710    0.58930    0.26540    1.000
    N204     N        0.37710    0.63310    0.53740    1.000
    C205     C        0.32770    0.61240    0.49000    1.000
    N206     N        0.80010    0.54470    0.55000    1.000
    C207     C        0.78810    0.50600    0.57360    1.000
    N208     N        0.87110    0.70510    0.44470    1.000
    C209     C        0.90240    0.73930    0.41710    1.000
    N211     N        0.54570    0.51590    0.74890    1.000
    C212     C        0.56640    0.55130    0.68560    1.000
    H213     H        0.59250    0.58060    0.70870    1.000
    C214     C        0.55030    0.54590    0.58640    1.000
    H215     H        0.56820    0.57060    0.54300    1.000
    C216     C        0.50820    0.50410    0.55290    1.000
    C217     C        0.48800    0.46660    0.61960    1.000
    H218     H        0.45990    0.43750    0.59770    1.000
    C219     C        0.50800    0.47240    0.71600    1.000
    H220     H        0.49660    0.44690    0.75980    1.000
    C221     C        0.56460    0.52300    0.85720    1.000
    H222     H        0.51790    0.54570    0.88360    1.000
    H223     H        0.55880    0.49200    0.89030    1.000
    H224     H        0.62920    0.53580    0.86650    1.000
    Cd225    Cd       0.66626    0.37367    0.99599    1.000
    Cd226    Cd       0.02952    0.30752    0.13743    1.000
    Cd227    Cd       0.27755    0.42530    0.89199    1.000
    N228     N        0.81970    0.34980    0.04290    1.000
    C229     C        0.88970    0.33490    0.07510    1.000
    N230     N        0.60580    0.35810    0.15380    1.000
    C231     C        0.57990    0.34170    0.22450    1.000
    N232     N        0.50920    0.39820    0.94820    1.000
    C233     C        0.43020    0.40450    0.92750    1.000
    N234     N        0.72080    0.40140    0.84100    1.000
    C235     C        0.74290    0.41070    0.76540    1.000
    N236     N        0.12290    0.36690    0.03740    1.000
    C237     C        0.17230    0.38760    0.99000    1.000
    N238     N        0.69990    0.45530    0.05000    1.000
    C239     C        0.71190    0.49400    0.07360    1.000
    N240     N        0.62890    0.29490    0.94470    1.000
    C241     C        0.59760    0.26070    0.91710    1.000
    N243     N        0.95430    0.48410    0.24890    1.000
    C244     C        0.93360    0.44870    0.18560    1.000
    H245     H        0.90750    0.41940    0.20870    1.000
    C246     C        0.94970    0.45410    0.08640    1.000
    H247     H        0.93180    0.42940    0.04300    1.000
    C248     C        0.99180    0.49590    0.05290    1.000
    C249     C        0.01200    0.53340    0.11960    1.000
    H250     H        0.04010    0.56250    0.09770    1.000
    C251     C        0.99200    0.52760    0.21600    1.000
    H252     H        0.00340    0.55310    0.25980    1.000
    C253     C        0.93540    0.47700    0.35720    1.000
    H254     H        0.98210    0.45430    0.38360    1.000
    H255     H        0.94120    0.50800    0.39030    1.000
    H256     H        0.87080    0.46420    0.36650    1.000
