# CIF file generated by openbabel 3.1.0, see https://openbabel.org
data_I
_chemical_name_common 'image0'
_cell_length_a 15.283
_cell_length_b 24.9021
_cell_length_c 10.6168
_cell_angle_alpha 90
_cell_angle_beta 90
_cell_angle_gamma 90
_space_group_name_H-M_alt 'P 1'
_space_group_name_Hall 'P 1'
loop_
    _symmetry_equiv_pos_as_xyz
    x,y,z
loop_
    _atom_site_label
    _atom_site_type_symbol
    _atom_site_fract_x
    _atom_site_fract_y
    _atom_site_fract_z
    _atom_site_occupancy
    O1       O        0.64453    0.72684    0.60347    1.000
    O2       O        0.30426    0.84160    0.39620    1.000
    O3       O        0.63612    0.61959    0.28668    1.000
    O4       O        0.41379    0.62681    0.29060    1.000
    O5       O        0.27598    0.50488    0.28880    1.000
    N1       N        0.72873    0.62403    0.11510    1.000
    N2       N        0.60933    0.67462    0.11550    1.000
    N3       N        0.45101    0.67747    0.11520    1.000
    N4       N        0.32584    0.63241    0.11450    1.000
    N5       N        0.23320    0.55360    0.11510    1.000
    N6       N        0.20930    0.46587    0.11560    1.000
    H1       H        0.47070    0.77800    0.57570    1.000
    C1       C        0.47240    0.88547    0.61850    1.000
    H2       H        0.44300    0.92090    0.62040    1.000
    H3       H        0.45490    0.86530    0.69480    1.000
    C2       C        0.57203    0.89338    0.61800    1.000
    H4       H        0.59000    0.91360    0.69510    1.000
    C3       C        0.61630    0.83784    0.61750    1.000
    H5       H        0.68070    0.84230    0.61880    1.000
    H6       H        0.59900    0.81770    0.69390    1.000
    C4       C        0.65653    0.63788    0.18160    1.000
    C5       C        0.53120    0.70062    0.16340    1.000
    H7       H        0.53100    0.69810    0.25640    1.000
    H8       H        0.53300    0.73920    0.14060    1.000
    C6       C        0.39838    0.64392    0.18440    1.000
    C7       C        0.25009    0.60630    0.16740    1.000
    H9       H        0.19820    0.62930    0.15300    1.000
    H10      H        0.25830    0.60290    0.25950    1.000
    C8       C        0.24360    0.50755    0.18370    1.000
    C9       C        0.20348    0.41128    0.16250    1.000
    H11      H        0.20680    0.41200    0.25560    1.000
    H12      H        0.14570    0.39630    0.13910    1.000
    O6       O        0.35547    0.27316    0.60347    1.000
    O7       O        0.69574    0.15840    0.39620    1.000
    O8       O        0.36388    0.38041    0.28668    1.000
    O9       O        0.58621    0.37319    0.29060    1.000
    O10      O        0.72402    0.49512    0.28880    1.000
    N7       N        0.27127    0.37597    0.11510    1.000
    N8       N        0.39067    0.32538    0.11550    1.000
    N9       N        0.54899    0.32253    0.11520    1.000
    N10      N        0.67416    0.36759    0.11450    1.000
    N11      N        0.76680    0.44640    0.11510    1.000
    N12      N        0.79070    0.53413    0.11560    1.000
    H13      H        0.52930    0.22200    0.57570    1.000
    C10      C        0.52760    0.11453    0.61850    1.000
    H14      H        0.55700    0.07910    0.62040    1.000
    H15      H        0.54510    0.13470    0.69480    1.000
    C11      C        0.42797    0.10662    0.61800    1.000
    H16      H        0.41000    0.08640    0.69510    1.000
    C12      C        0.38370    0.16216    0.61750    1.000
    H17      H        0.31930    0.15770    0.61880    1.000
    H18      H        0.40100    0.18230    0.69390    1.000
    C13      C        0.34347    0.36212    0.18160    1.000
    C14      C        0.46880    0.29938    0.16340    1.000
    H19      H        0.46900    0.30190    0.25640    1.000
    H20      H        0.46700    0.26080    0.14060    1.000
    C15      C        0.60162    0.35608    0.18440    1.000
    C16      C        0.74991    0.39370    0.16740    1.000
    H21      H        0.80180    0.37070    0.15300    1.000
    H22      H        0.74170    0.39710    0.25950    1.000
    C17      C        0.75640    0.49245    0.18370    1.000
    C18      C        0.79652    0.58872    0.16250    1.000
    H23      H        0.79320    0.58800    0.25560    1.000
    H24      H        0.85430    0.60370    0.13910    1.000
    O11      O        0.85547    0.22684    0.39653    1.000
    O12      O        0.19574    0.34160    0.60380    1.000
    O13      O        0.86388    0.11959    0.71332    1.000
    O14      O        0.08621    0.12681    0.70940    1.000
    O15      O        0.22402    0.00488    0.71120    1.000
    N13      N        0.77127    0.12403    0.88490    1.000
    N14      N        0.89067    0.17462    0.88450    1.000
    N15      N        0.04899    0.17747    0.88480    1.000
    N16      N        0.17416    0.13241    0.88550    1.000
    N17      N        0.26680    0.05360    0.88490    1.000
    N18      N        0.29070    0.96587    0.88440    1.000
    H25      H        0.02930    0.27800    0.42430    1.000
    C19      C        0.02760    0.38547    0.38150    1.000
    H26      H        0.05700    0.42090    0.37960    1.000
    H27      H        0.04510    0.36530    0.30520    1.000
    C20      C        0.92797    0.39338    0.38200    1.000
    H28      H        0.91000    0.41360    0.30490    1.000
    C21      C        0.88370    0.33784    0.38250    1.000
    H29      H        0.81930    0.34230    0.38120    1.000
    H30      H        0.90100    0.31770    0.30610    1.000
    C22      C        0.84347    0.13788    0.81840    1.000
    C23      C        0.96880    0.20062    0.83660    1.000
    H31      H        0.96900    0.19810    0.74360    1.000
    H32      H        0.96700    0.23920    0.85940    1.000
    C24      C        0.10162    0.14392    0.81560    1.000
    C25      C        0.24991    0.10630    0.83260    1.000
    H33      H        0.30180    0.12930    0.84700    1.000
    H34      H        0.24170    0.10290    0.74050    1.000
    C26      C        0.25640    0.00755    0.81630    1.000
    C27      C        0.29652    0.91128    0.83750    1.000
    H35      H        0.29320    0.91200    0.74440    1.000
    H36      H        0.35430    0.89630    0.86090    1.000
    O16      O        0.14453    0.77316    0.39653    1.000
    O17      O        0.80426    0.65840    0.60380    1.000
    O18      O        0.13612    0.88041    0.71332    1.000
    O19      O        0.91379    0.87319    0.70940    1.000
    O20      O        0.77598    0.99512    0.71120    1.000
    N19      N        0.22873    0.87597    0.88490    1.000
    N20      N        0.10933    0.82538    0.88450    1.000
    N21      N        0.95101    0.82253    0.88480    1.000
    N22      N        0.82584    0.86759    0.88550    1.000
    N23      N        0.73320    0.94640    0.88490    1.000
    N24      N        0.70930    0.03413    0.88440    1.000
    H37      H        0.97070    0.72200    0.42430    1.000
    C28      C        0.97240    0.61453    0.38150    1.000
    H38      H        0.94300    0.57910    0.37960    1.000
    H39      H        0.95490    0.63470    0.30520    1.000
    C29      C        0.07203    0.60662    0.38200    1.000
    H40      H        0.09000    0.58640    0.30490    1.000
    C30      C        0.11630    0.66216    0.38250    1.000
    H41      H        0.18070    0.65770    0.38120    1.000
    H42      H        0.09900    0.68230    0.30610    1.000
    C31      C        0.15653    0.86212    0.81840    1.000
    C32      C        0.03120    0.79938    0.83660    1.000
    H43      H        0.03100    0.80190    0.74360    1.000
    H44      H        0.03300    0.76080    0.85940    1.000
    C33      C        0.89838    0.85608    0.81560    1.000
    C34      C        0.75009    0.89370    0.83260    1.000
    H45      H        0.69820    0.87070    0.84700    1.000
    H46      H        0.75830    0.89710    0.74050    1.000
    C35      C        0.74360    0.99245    0.81630    1.000
    C36      C        0.70348    0.08872    0.83750    1.000
    H47      H        0.70680    0.08800    0.74440    1.000
    H48      H        0.64570    0.10370    0.86090    1.000
    O21      O        0.35547    0.27316    0.39653    1.000
    O22      O        0.69574    0.15840    0.60380    1.000
    O23      O        0.36388    0.38041    0.71332    1.000
    O24      O        0.58621    0.37319    0.70940    1.000
    O25      O        0.72402    0.49512    0.71120    1.000
    N25      N        0.27127    0.37597    0.88490    1.000
    N26      N        0.39067    0.32538    0.88450    1.000
    N27      N        0.54899    0.32253    0.88480    1.000
    N28      N        0.67416    0.36759    0.88550    1.000
    N29      N        0.76680    0.44640    0.88490    1.000
    N30      N        0.79070    0.53413    0.88440    1.000
    H49      H        0.52930    0.22200    0.42430    1.000
    C37      C        0.52760    0.11453    0.38150    1.000
    H50      H        0.55700    0.07910    0.37960    1.000
    H51      H        0.54510    0.13470    0.30520    1.000
    C38      C        0.42797    0.10662    0.38200    1.000
    H52      H        0.41000    0.08640    0.30490    1.000
    C39      C        0.38370    0.16216    0.38250    1.000
    H53      H        0.31930    0.15770    0.38120    1.000
    H54      H        0.40100    0.18230    0.30610    1.000
    C40      C        0.34347    0.36212    0.81840    1.000
    C41      C        0.46880    0.29938    0.83660    1.000
    H55      H        0.46900    0.30190    0.74360    1.000
    H56      H        0.46700    0.26080    0.85940    1.000
    C42      C        0.60162    0.35608    0.81560    1.000
    C43      C        0.74991    0.39370    0.83260    1.000
    H57      H        0.80180    0.37070    0.84700    1.000
    H58      H        0.74170    0.39710    0.74050    1.000
    C44      C        0.75640    0.49245    0.81630    1.000
    C45      C        0.79652    0.58872    0.83750    1.000
    H59      H        0.79320    0.58800    0.74440    1.000
    H60      H        0.85430    0.60370    0.86090    1.000
    O26      O        0.64453    0.72684    0.39653    1.000
    O27      O        0.30426    0.84160    0.60380    1.000
    O28      O        0.63612    0.61959    0.71332    1.000
    O29      O        0.41379    0.62681    0.70940    1.000
    O30      O        0.27598    0.50488    0.71120    1.000
    N31      N        0.72873    0.62403    0.88490    1.000
    N32      N        0.60933    0.67462    0.88450    1.000
    N33      N        0.45101    0.67747    0.88480    1.000
    N34      N        0.32584    0.63241    0.88550    1.000
    N35      N        0.23320    0.55360    0.88490    1.000
    N36      N        0.20930    0.46587    0.88440    1.000
    H61      H        0.47070    0.77800    0.42430    1.000
    C46      C        0.47240    0.88547    0.38150    1.000
    H62      H        0.44300    0.92090    0.37960    1.000
    H63      H        0.45490    0.86530    0.30520    1.000
    C47      C        0.57203    0.89338    0.38200    1.000
    H64      H        0.59000    0.91360    0.30490    1.000
    C48      C        0.61630    0.83784    0.38250    1.000
    H65      H        0.68070    0.84230    0.38120    1.000
    H66      H        0.59900    0.81770    0.30610    1.000
    C49      C        0.65653    0.63788    0.81840    1.000
    C50      C        0.53120    0.70062    0.83660    1.000
    H67      H        0.53100    0.69810    0.74360    1.000
    H68      H        0.53300    0.73920    0.85940    1.000
    C51      C        0.39838    0.64392    0.81560    1.000
    C52      C        0.25009    0.60630    0.83260    1.000
    H69      H        0.19820    0.62930    0.84700    1.000
    H70      H        0.25830    0.60290    0.74050    1.000
    C53      C        0.24360    0.50755    0.81630    1.000
    C54      C        0.20348    0.41128    0.83750    1.000
    H71      H        0.20680    0.41200    0.74440    1.000
    H72      H        0.14570    0.39630    0.86090    1.000
    O31      O        0.14453    0.77316    0.60347    1.000
    O32      O        0.80426    0.65840    0.39620    1.000
    O33      O        0.13612    0.88041    0.28668    1.000
    O34      O        0.91379    0.87319    0.29060    1.000
    O35      O        0.77598    0.99512    0.28880    1.000
    N37      N        0.22873    0.87597    0.11510    1.000
    N38      N        0.10933    0.82538    0.11550    1.000
    N39      N        0.95101    0.82253    0.11520    1.000
    N40      N        0.82584    0.86759    0.11450    1.000
    N41      N        0.73320    0.94640    0.11510    1.000
    N42      N        0.70930    0.03413    0.11560    1.000
    H73      H        0.97070    0.72200    0.57570    1.000
    C55      C        0.97240    0.61453    0.61850    1.000
    H74      H        0.94300    0.57910    0.62040    1.000
    H75      H        0.95490    0.63470    0.69480    1.000
    C56      C        0.07203    0.60662    0.61800    1.000
    H76      H        0.09000    0.58640    0.69510    1.000
    C57      C        0.11630    0.66216    0.61750    1.000
    H77      H        0.18070    0.65770    0.61880    1.000
    H78      H        0.09900    0.68230    0.69390    1.000
    C58      C        0.15653    0.86212    0.18160    1.000
    C59      C        0.03120    0.79938    0.16340    1.000
    H79      H        0.03100    0.80190    0.25640    1.000
    H80      H        0.03300    0.76080    0.14060    1.000
    C60      C        0.89838    0.85608    0.18440    1.000
    C61      C        0.75009    0.89370    0.16740    1.000
    H81      H        0.69820    0.87070    0.15300    1.000
    H82      H        0.75830    0.89710    0.25950    1.000
    C62      C        0.74360    0.99245    0.18370    1.000
    C63      C        0.70348    0.08872    0.16250    1.000
    H83      H        0.70680    0.08800    0.25560    1.000
    H84      H        0.64570    0.10370    0.13910    1.000
    O36      O        0.85547    0.22684    0.60347    1.000
    O37      O        0.19574    0.34160    0.39620    1.000
    O38      O        0.86388    0.11959    0.28668    1.000
    O39      O        0.08621    0.12681    0.29060    1.000
    O40      O        0.22402    0.00488    0.28880    1.000
    N43      N        0.77127    0.12403    0.11510    1.000
    N44      N        0.89067    0.17462    0.11550    1.000
    N45      N        0.04899    0.17747    0.11520    1.000
    N46      N        0.17416    0.13241    0.11450    1.000
    N47      N        0.26680    0.05360    0.11510    1.000
    N48      N        0.29070    0.96587    0.11560    1.000
    H85      H        0.02930    0.27800    0.57570    1.000
    C64      C        0.02760    0.38547    0.61850    1.000
    H86      H        0.05700    0.42090    0.62040    1.000
    H87      H        0.04510    0.36530    0.69480    1.000
    C65      C        0.92797    0.39338    0.61800    1.000
    H88      H        0.91000    0.41360    0.69510    1.000
    C66      C        0.88370    0.33784    0.61750    1.000
    H89      H        0.81930    0.34230    0.61880    1.000
    H90      H        0.90100    0.31770    0.69390    1.000
    C67      C        0.84347    0.13788    0.18160    1.000
    C68      C        0.96880    0.20062    0.16340    1.000
    H91      H        0.96900    0.19810    0.25640    1.000
    H92      H        0.96700    0.23920    0.14060    1.000
    C69      C        0.10162    0.14392    0.18440    1.000
    C70      C        0.24991    0.10630    0.16740    1.000
    H93      H        0.30180    0.12930    0.15300    1.000
    H94      H        0.24170    0.10290    0.25950    1.000
    C71      C        0.25640    0.00755    0.18370    1.000
    C72      C        0.29652    0.91128    0.16250    1.000
    H95      H        0.29320    0.91200    0.25560    1.000
    H96      H        0.35430    0.89630    0.13910    1.000
    Tb1      Tb       0.66358    0.63971    0.50000    1.000
    C73      C        0.58950    0.80626    0.50000    1.000
    C74      C        0.48860    0.79854    0.50000    1.000
    C75      C        0.44390    0.85435    0.50000    1.000
    C76      C        0.60030    0.92451    0.50000    1.000
    H97      H        0.57300    0.96060    0.50000    1.000
    H98      H        0.66470    0.92920    0.50000    1.000
    C77      C        0.62980    0.75041    0.50000    1.000
    C78      C        0.34530    0.84526    0.50000    1.000
    Tb2      Tb       0.33642    0.36029    0.50000    1.000
    C79      C        0.41050    0.19374    0.50000    1.000
    C80      C        0.51140    0.20146    0.50000    1.000
    C81      C        0.55610    0.14565    0.50000    1.000
    C82      C        0.39970    0.07549    0.50000    1.000
    H99      H        0.42700    0.03940    0.50000    1.000
    H100     H        0.33530    0.07080    0.50000    1.000
    C83      C        0.37020    0.24959    0.50000    1.000
    C84      C        0.65470    0.15474    0.50000    1.000
    Tb3      Tb       0.83642    0.13971    0.50000    1.000
    C85      C        0.91050    0.30626    0.50000    1.000
    C86      C        0.01140    0.29854    0.50000    1.000
    C87      C        0.05610    0.35435    0.50000    1.000
    C88      C        0.89970    0.42451    0.50000    1.000
    H101     H        0.92700    0.46060    0.50000    1.000
    H102     H        0.83530    0.42920    0.50000    1.000
    C89      C        0.87020    0.25041    0.50000    1.000
    C90      C        0.15470    0.34526    0.50000    1.000
    Tb4      Tb       0.16358    0.86029    0.50000    1.000
    C91      C        0.08950    0.69374    0.50000    1.000
    C92      C        0.98860    0.70146    0.50000    1.000
    C93      C        0.94390    0.64565    0.50000    1.000
    C94      C        0.10030    0.57549    0.50000    1.000
    H103     H        0.07300    0.53940    0.50000    1.000
    H104     H        0.16470    0.57080    0.50000    1.000
    C95      C        0.12980    0.74959    0.50000    1.000
    C96      C        0.84530    0.65474    0.50000    1.000
    C97      C        0.73680    0.65512    0.00000    1.000
    H105     H        0.79120    0.67750    0.00000    1.000
    C98      C        0.65350    0.69037    0.00000    1.000
    H106     H        0.66830    0.72950    0.00000    1.000
    C99      C        0.40900    0.69517    0.00000    1.000
    H107     H        0.39910    0.73490    0.00000    1.000
    C100     C        0.32170    0.66380    0.00000    1.000
    H108     H        0.27020    0.68860    0.00000    1.000
    C101     C        0.18420    0.54523    0.00000    1.000
    H109     H        0.12820    0.56600    0.00000    1.000
    C102     C        0.16710    0.48362    0.00000    1.000
    H110     H        0.10310    0.47520    0.00000    1.000
    C103     C        0.26320    0.34488    0.00000    1.000
    H111     H        0.20880    0.32250    0.00000    1.000
    C104     C        0.34650    0.30963    0.00000    1.000
    H112     H        0.33170    0.27050    0.00000    1.000
    C105     C        0.59100    0.30483    0.00000    1.000
    H113     H        0.60090    0.26510    0.00000    1.000
    C106     C        0.67830    0.33620    0.00000    1.000
    H114     H        0.72980    0.31140    0.00000    1.000
    C107     C        0.81580    0.45477    0.00000    1.000
    H115     H        0.87180    0.43400    0.00000    1.000
    C108     C        0.83290    0.51638    0.00000    1.000
    H116     H        0.89690    0.52480    0.00000    1.000
    C109     C        0.76320    0.15512    0.00000    1.000
    H117     H        0.70880    0.17750    0.00000    1.000
    C110     C        0.84650    0.19037    0.00000    1.000
    H118     H        0.83170    0.22950    0.00000    1.000
    C111     C        0.09100    0.19517    0.00000    1.000
    H119     H        0.10090    0.23490    0.00000    1.000
    C112     C        0.17830    0.16380    0.00000    1.000
    H120     H        0.22980    0.18860    0.00000    1.000
    C113     C        0.31580    0.04523    0.00000    1.000
    H121     H        0.37180    0.06600    0.00000    1.000
    C114     C        0.33290    0.98362    0.00000    1.000
    H122     H        0.39690    0.97520    0.00000    1.000
    C115     C        0.23680    0.84488    0.00000    1.000
    H123     H        0.29120    0.82250    0.00000    1.000
    C116     C        0.15350    0.80963    0.00000    1.000
    H124     H        0.16830    0.77050    0.00000    1.000
    C117     C        0.90900    0.80483    0.00000    1.000
    H125     H        0.89910    0.76510    0.00000    1.000
    C118     C        0.82170    0.83620    0.00000    1.000
    H126     H        0.77020    0.81140    0.00000    1.000
    C119     C        0.68420    0.95477    0.00000    1.000
    H127     H        0.62820    0.93400    0.00000    1.000
    C120     C        0.66710    0.01638    0.00000    1.000
    H128     H        0.60310    0.02480    0.00000    1.000
