# CIF file generated by openbabel 3.1.0, see https://openbabel.org
data_I
_chemical_name_common 'image0'
_cell_length_a 8.1015
_cell_length_b 12.9463
_cell_length_c 12.4223
_cell_angle_alpha 90
_cell_angle_beta 97.778
_cell_angle_gamma 90
_space_group_name_H-M_alt 'P 1'
_space_group_name_Hall 'P 1'
loop_
    _symmetry_equiv_pos_as_xyz
    x,y,z
loop_
    _atom_site_label
    _atom_site_type_symbol
    _atom_site_fract_x
    _atom_site_fract_y
    _atom_site_fract_z
    _atom_site_occupancy
    Cs1      Cs       0.96903    0.21217    0.72862    1.000
    Cs2      Cs       0.49202    0.13402    0.89315    1.000
    S1       S        0.66300    0.42034    0.64421    1.000
    S2       S        0.30769    0.40929    0.69877    1.000
    S3       S        0.44825    0.23456    0.57756    1.000
    C1       C        0.45250    0.37296    0.60513    1.000
    H1       H        0.41100    0.40730    0.53450    1.000
    O1       O        0.76090    0.37009    0.57026    1.000
    O2       O        0.71250    0.38885    0.75686    1.000
    O3       O        0.65330    0.53153    0.63094    1.000
    O4       O        0.35630    0.51103    0.73921    1.000
    O5       O        0.32570    0.33082    0.78400    1.000
    O6       O        0.14570    0.40737    0.63319    1.000
    O7       O        0.55710    0.18475    0.66391    1.000
    O8       O        0.27250    0.20635    0.57289    1.000
    O9       O        0.50510    0.22340    0.47198    1.000
    Cs3      Cs       0.53097    0.71217    0.77138    1.000
    Cs4      Cs       0.00798    0.63402    0.60685    1.000
    S4       S        0.83700    0.92034    0.85579    1.000
    S5       S        0.19231    0.90929    0.80123    1.000
    S6       S        0.05175    0.73456    0.92244    1.000
    C2       C        0.04750    0.87296    0.89487    1.000
    H2       H        0.08900    0.90730    0.96550    1.000
    O10      O        0.73910    0.87009    0.92974    1.000
    O11      O        0.78750    0.88885    0.74314    1.000
    O12      O        0.84670    0.03153    0.86906    1.000
    O13      O        0.14370    0.01103    0.76079    1.000
    O14      O        0.17430    0.83082    0.71600    1.000
    O15      O        0.35430    0.90737    0.86681    1.000
    O16      O        0.94290    0.68475    0.83609    1.000
    O17      O        0.22750    0.70635    0.92711    1.000
    O18      O        0.99490    0.72340    0.02802    1.000
    Cs5      Cs       0.03097    0.78783    0.27138    1.000
    Cs6      Cs       0.50798    0.86598    0.10685    1.000
    S7       S        0.33700    0.57966    0.35579    1.000
    S8       S        0.69231    0.59071    0.30123    1.000
    S9       S        0.55175    0.76544    0.42244    1.000
    C3       C        0.54750    0.62704    0.39487    1.000
    H3       H        0.58900    0.59270    0.46550    1.000
    O19      O        0.23910    0.62991    0.42974    1.000
    O20      O        0.28750    0.61115    0.24314    1.000
    O21      O        0.34670    0.46847    0.36906    1.000
    O22      O        0.64370    0.48897    0.26079    1.000
    O23      O        0.67430    0.66918    0.21600    1.000
    O24      O        0.85430    0.59263    0.36681    1.000
    O25      O        0.44290    0.81525    0.33609    1.000
    O26      O        0.72750    0.79365    0.42711    1.000
    O27      O        0.49490    0.77660    0.52802    1.000
    Cs7      Cs       0.46903    0.28783    0.22862    1.000
    Cs8      Cs       0.99202    0.36598    0.39315    1.000
    S10      S        0.16300    0.07966    0.14421    1.000
    S11      S        0.80769    0.09071    0.19877    1.000
    S12      S        0.94825    0.26544    0.07756    1.000
    C4       C        0.95250    0.12704    0.10513    1.000
    H4       H        0.91100    0.09270    0.03450    1.000
    O28      O        0.26090    0.12991    0.07026    1.000
    O29      O        0.21250    0.11115    0.25686    1.000
    O30      O        0.15330    0.96847    0.13094    1.000
    O31      O        0.85630    0.98897    0.23921    1.000
    O32      O        0.82570    0.16918    0.28400    1.000
    O33      O        0.64570    0.09263    0.13319    1.000
    O34      O        0.05710    0.31525    0.16391    1.000
    O35      O        0.77250    0.29365    0.07289    1.000
    O36      O        0.00510    0.27660    0.97198    1.000
