# CIF file generated by openbabel 3.1.0, see https://openbabel.org
data_I
_chemical_name_common 'image0'
_cell_length_a 22.261
_cell_length_b 22.261
_cell_length_c 32.92
_cell_angle_alpha 90
_cell_angle_beta 90
_cell_angle_gamma 90
_space_group_name_H-M_alt 'P 1'
_space_group_name_Hall 'P 1'
loop_
    _symmetry_equiv_pos_as_xyz
    x,y,z
loop_
    _atom_site_label
    _atom_site_type_symbol
    _atom_site_fract_x
    _atom_site_fract_y
    _atom_site_fract_z
    _atom_site_occupancy
    Cd1      Cd       0.83590    0.38553    0.25245    1.000
    Cd2      Cd       0.33691    0.36036    0.10486    1.000
    O1       O        0.87490    0.41730    0.19016    1.000
    O2       O        0.88560    0.31900    0.18769    1.000
    O3       O        0.97486    0.20676    0.03006    1.000
    O4       O        0.89703    0.20737    0.07266    1.000
    N1       N        0.42480    0.34570    0.07339    1.000
    N2       N        0.52360    0.33280    0.06757    1.000
    N3       N        0.74650    0.38280    0.21344    1.000
    N4       N        0.69010    0.36450    0.15955    1.000
    N5       N        0.25660    0.38730    0.14521    1.000
    N6       N        0.19940    0.39060    0.20053    1.000
    N7       N        0.02560    0.39200    0.28872    1.000
    N8       N        0.19940    0.26920    0.32176    1.000
    N9       N        0.26850    0.20750    0.34555    1.000
    N10      N        0.92810    0.40060    0.28020    1.000
    C1       C        0.69900    0.29390    0.10290    1.000
    H1       H        0.73800    0.28450    0.11080    1.000
    C2       C        0.71140    0.43170    0.20510    1.000
    H2       H        0.71160    0.46730    0.21990    1.000
    C3       C        0.67370    0.26610    0.06920    1.000
    N11      N        0.70950    0.22340    0.04703    1.000
    C4       C        0.66640    0.33520    0.12476    1.000
    C5       C        0.67650    0.42080    0.17230    1.000
    H3       H        0.64860    0.44690    0.16080    1.000
    C6       C        0.73160    0.34280    0.18520    1.000
    H4       H        0.74810    0.30450    0.18330    1.000
    C7       C        0.60750    0.34990    0.11200    1.000
    H5       H        0.58540    0.37910    0.12560    1.000
    C8       C        0.58380    0.32060    0.07930    1.000
    C9       C        0.61710    0.27720    0.05830    1.000
    H6       H        0.59980    0.25630    0.03680    1.000
    C10      C        0.47810    0.34250    0.09150    1.000
    H7       H        0.48260    0.34690    0.11950    1.000
    C11      C        0.95180    0.22080    0.06380    1.000
    C12      C        0.19830    0.33250    0.26126    1.000
    H8       H        0.23650    0.31850    0.25490    1.000
    C13      C        0.08590    0.37310    0.28142    1.000
    C14      C        0.11390    0.33210    0.30590    1.000
    H9       H        0.09480    0.31750    0.32900    1.000
    C15      C        0.97930    0.38660    0.26426    1.000
    H10      H        0.98300    0.37370    0.23750    1.000
    C16      C        0.11340    0.39430    0.24620    1.000
    H11      H        0.09420    0.42240    0.22970    1.000
    C17      C        0.17020    0.37250    0.23605    1.000
    C18      C        0.17000    0.31290    0.29620    1.000
    C19      C        0.82690    0.40310    0.10920    1.000
    H12      H        0.80270    0.42410    0.12730    1.000
    C20      C        0.87690    0.37160    0.12466    1.000
    C21      C        0.88100    0.36740    0.17100    1.000
    C22      C        0.81270    0.40440    0.07000    1.000
    H13      H        0.77850    0.42410    0.06070    1.000
    C23      C        0.98920    0.25380    0.09370    1.000
    C24      C        0.91510    0.34140    0.09814    1.000
    C25      C        0.90210    0.34470    0.05653    1.000
    H14      H        0.92790    0.32650    0.03800    1.000
    C26      C        0.97160    0.30860    0.11095    1.000
    C27      C        0.85260    0.37370    0.04270    1.000
    H15      H        0.84440    0.37380    0.01500    1.000
    C28      C        0.04380    0.22920    0.10480    1.000
    H16      H        0.05570    0.19280    0.09360    1.000
    C29      C        0.23250    0.44540    0.15020    1.000
    H17      H        0.24010    0.47770    0.13310    1.000
    C30      C        0.23370    0.35630    0.17560    1.000
    H18      H        0.24040    0.31550    0.17950    1.000
    C31      C        0.25640    0.25100    0.32080    1.000
    H19      H        0.28500    0.26810    0.30380    1.000
    C32      C        0.19810    0.44750    0.18230    1.000
    H20      H        0.17670    0.48070    0.19140    1.000
    C33      C        0.06330    0.31090    0.14890    1.000
    H21      H        0.08850    0.33010    0.16730    1.000
    C34      C        0.08040    0.25710    0.13170    1.000
    H22      H        0.11710    0.23990    0.13860    1.000
    C35      C        0.01060    0.33550    0.13925    1.000
    H23      H        0.99940    0.37140    0.15150    1.000
    C36      C        0.00140    0.40600    0.32550    1.000
    H24      H        0.02210    0.41260    0.34960    1.000
    C37      C        0.50110    0.32860    0.02890    1.000
    H25      H        0.52140    0.32010    0.00490    1.000
    C38      C        0.43790    0.34050    0.03490    1.000
    H26      H        0.41010    0.34400    0.01390    1.000
    C39      C        0.94160    0.40840    0.32000    1.000
    H27      H        0.91360    0.41450    0.34060    1.000
    C40      C        0.21550    0.19400    0.36250    1.000
    H28      H        0.20950    0.16360    0.38140    1.000
    C41      C        0.17240    0.23060    0.34840    1.000
    H29      H        0.13190    0.22980    0.35540    1.000
    N12      N        0.78720    0.17860    0.01968    1.000
    C42      C        0.77020    0.22270    0.04300    1.000
    H30      H        0.79610    0.25010    0.05520    1.000
    C43      C        0.73850    0.14710    0.00960    1.000
    H31      H        0.73810    0.11130    0.99500    1.000
    C44      C        0.68950    0.17600    0.02430    1.000
    H32      H        0.64960    0.16560    0.01970    1.000
    Cd3      Cd       0.33590    0.88553    0.75245    1.000
    Cd4      Cd       0.83691    0.86036    0.60486    1.000
    O5       O        0.37490    0.91730    0.69016    1.000
    O6       O        0.38560    0.81900    0.68769    1.000
    O7       O        0.47486    0.70676    0.53006    1.000
    O8       O        0.39703    0.70737    0.57266    1.000
    N13      N        0.92480    0.84570    0.57339    1.000
    N14      N        0.02360    0.83280    0.56757    1.000
    N15      N        0.24650    0.88280    0.71344    1.000
    N16      N        0.19010    0.86450    0.65955    1.000
    N17      N        0.75660    0.88730    0.64521    1.000
    N18      N        0.69940    0.89060    0.70053    1.000
    N19      N        0.52560    0.89200    0.78872    1.000
    N20      N        0.69940    0.76920    0.82176    1.000
    N21      N        0.76850    0.70750    0.84555    1.000
    N22      N        0.42810    0.90060    0.78020    1.000
    C45      C        0.19900    0.79390    0.60290    1.000
    H33      H        0.23800    0.78450    0.61080    1.000
    C46      C        0.21140    0.93170    0.70510    1.000
    H34      H        0.21160    0.96730    0.71990    1.000
    C47      C        0.17370    0.76610    0.56920    1.000
    N23      N        0.20950    0.72340    0.54703    1.000
    C48      C        0.16640    0.83520    0.62476    1.000
    C49      C        0.17650    0.92080    0.67230    1.000
    H35      H        0.14860    0.94690    0.66080    1.000
    C50      C        0.23160    0.84280    0.68520    1.000
    H36      H        0.24810    0.80450    0.68330    1.000
    C51      C        0.10750    0.84990    0.61200    1.000
    H37      H        0.08540    0.87910    0.62560    1.000
    C52      C        0.08380    0.82060    0.57930    1.000
    C53      C        0.11710    0.77720    0.55830    1.000
    H38      H        0.09980    0.75630    0.53680    1.000
    C54      C        0.97810    0.84250    0.59150    1.000
    H39      H        0.98260    0.84690    0.61950    1.000
    C55      C        0.45180    0.72080    0.56380    1.000
    C56      C        0.69830    0.83250    0.76126    1.000
    H40      H        0.73650    0.81850    0.75490    1.000
    C57      C        0.58590    0.87310    0.78142    1.000
    C58      C        0.61390    0.83210    0.80590    1.000
    H41      H        0.59480    0.81750    0.82900    1.000
    C59      C        0.47930    0.88660    0.76426    1.000
    H42      H        0.48300    0.87370    0.73750    1.000
    C60      C        0.61340    0.89430    0.74620    1.000
    H43      H        0.59420    0.92240    0.72970    1.000
    C61      C        0.67020    0.87250    0.73605    1.000
    C62      C        0.67000    0.81290    0.79620    1.000
    C63      C        0.32690    0.90310    0.60920    1.000
    H44      H        0.30270    0.92410    0.62730    1.000
    C64      C        0.37690    0.87160    0.62466    1.000
    C65      C        0.38100    0.86740    0.67100    1.000
    C66      C        0.31270    0.90440    0.57000    1.000
    H45      H        0.27850    0.92410    0.56070    1.000
    C67      C        0.48920    0.75380    0.59370    1.000
    C68      C        0.41510    0.84140    0.59814    1.000
    C69      C        0.40210    0.84470    0.55653    1.000
    H46      H        0.42790    0.82650    0.53800    1.000
    C70      C        0.47160    0.80860    0.61095    1.000
    C71      C        0.35260    0.87370    0.54270    1.000
    H47      H        0.34440    0.87380    0.51500    1.000
    C72      C        0.54380    0.72920    0.60480    1.000
    H48      H        0.55570    0.69280    0.59360    1.000
    C73      C        0.73250    0.94540    0.65020    1.000
    H49      H        0.74010    0.97770    0.63310    1.000
    C74      C        0.73370    0.85630    0.67560    1.000
    H50      H        0.74040    0.81550    0.67950    1.000
    C75      C        0.75640    0.75100    0.82080    1.000
    H51      H        0.78500    0.76810    0.80380    1.000
    C76      C        0.69810    0.94750    0.68230    1.000
    H52      H        0.67670    0.98070    0.69140    1.000
    C77      C        0.56330    0.81090    0.64890    1.000
    H53      H        0.58850    0.83010    0.66730    1.000
    C78      C        0.58040    0.75710    0.63170    1.000
    H54      H        0.61710    0.73990    0.63860    1.000
    C79      C        0.51060    0.83550    0.63925    1.000
    H55      H        0.49940    0.87140    0.65150    1.000
    C80      C        0.50140    0.90600    0.82550    1.000
    H56      H        0.52210    0.91260    0.84960    1.000
    C81      C        0.00110    0.82860    0.52890    1.000
    H57      H        0.02140    0.82010    0.50490    1.000
    C82      C        0.93790    0.84050    0.53490    1.000
    H58      H        0.91010    0.84400    0.51390    1.000
    C83      C        0.44160    0.90840    0.82000    1.000
    H59      H        0.41360    0.91450    0.84060    1.000
    C84      C        0.71550    0.69400    0.86250    1.000
    H60      H        0.70950    0.66360    0.88140    1.000
    C85      C        0.67240    0.73060    0.84840    1.000
    H61      H        0.63190    0.72980    0.85540    1.000
    N24      N        0.28720    0.67860    0.51968    1.000
    C86      C        0.27020    0.72270    0.54300    1.000
    H62      H        0.29610    0.75010    0.55520    1.000
    C87      C        0.23850    0.64710    0.50960    1.000
    H63      H        0.23810    0.61130    0.49500    1.000
    C88      C        0.18950    0.67600    0.52430    1.000
    H64      H        0.14960    0.66560    0.51970    1.000
    Cd5      Cd       0.66410    0.11447    0.75245    1.000
    Cd6      Cd       0.16309    0.13964    0.60486    1.000
    O9       O        0.62510    0.08270    0.69016    1.000
    O10      O        0.61440    0.18100    0.68769    1.000
    O11      O        0.52514    0.29324    0.53006    1.000
    O12      O        0.60297    0.29263    0.57266    1.000
    N25      N        0.07520    0.15430    0.57339    1.000
    N26      N        0.97640    0.16720    0.56757    1.000
    N27      N        0.75350    0.11720    0.71344    1.000
    N28      N        0.80990    0.13550    0.65955    1.000
    N29      N        0.24340    0.11270    0.64521    1.000
    N30      N        0.30060    0.10940    0.70053    1.000
    N31      N        0.47440    0.10800    0.78872    1.000
    N32      N        0.30060    0.23080    0.82176    1.000
    N33      N        0.23150    0.29250    0.84555    1.000
    N34      N        0.57190    0.09940    0.78020    1.000
    C89      C        0.80100    0.20610    0.60290    1.000
    H65      H        0.76200    0.21550    0.61080    1.000
    C90      C        0.78860    0.06830    0.70510    1.000
    H66      H        0.78840    0.03270    0.71990    1.000
    C91      C        0.82630    0.23390    0.56920    1.000
    N35      N        0.79050    0.27660    0.54703    1.000
    C92      C        0.83360    0.16480    0.62476    1.000
    C93      C        0.82350    0.07920    0.67230    1.000
    H67      H        0.85140    0.05310    0.66080    1.000
    C94      C        0.76840    0.15720    0.68520    1.000
    H68      H        0.75190    0.19550    0.68330    1.000
    C95      C        0.89250    0.15010    0.61200    1.000
    H69      H        0.91460    0.12090    0.62560    1.000
    C96      C        0.91620    0.17940    0.57930    1.000
    C97      C        0.88290    0.22280    0.55830    1.000
    H70      H        0.90020    0.24370    0.53680    1.000
    C98      C        0.02190    0.15750    0.59150    1.000
    H71      H        0.01740    0.15310    0.61950    1.000
    C99      C        0.54820    0.27920    0.56380    1.000
    C100     C        0.30170    0.16750    0.76126    1.000
    H72      H        0.26350    0.18150    0.75490    1.000
    C101     C        0.41410    0.12690    0.78142    1.000
    C102     C        0.38610    0.16790    0.80590    1.000
    H73      H        0.40520    0.18250    0.82900    1.000
    C103     C        0.52070    0.11340    0.76426    1.000
    H74      H        0.51700    0.12630    0.73750    1.000
    C104     C        0.38660    0.10570    0.74620    1.000
    H75      H        0.40580    0.07760    0.72970    1.000
    C105     C        0.32980    0.12750    0.73605    1.000
    C106     C        0.33000    0.18710    0.79620    1.000
    C107     C        0.67310    0.09690    0.60920    1.000
    H76      H        0.69730    0.07590    0.62730    1.000
    C108     C        0.62310    0.12840    0.62466    1.000
    C109     C        0.61900    0.13260    0.67100    1.000
    C110     C        0.68730    0.09560    0.57000    1.000
    H77      H        0.72150    0.07590    0.56070    1.000
    C111     C        0.51080    0.24620    0.59370    1.000
    C112     C        0.58490    0.15860    0.59814    1.000
    C113     C        0.59790    0.15530    0.55653    1.000
    H78      H        0.57210    0.17350    0.53800    1.000
    C114     C        0.52840    0.19140    0.61095    1.000
    C115     C        0.64740    0.12630    0.54270    1.000
    H79      H        0.65560    0.12620    0.51500    1.000
    C116     C        0.45620    0.27080    0.60480    1.000
    H80      H        0.44430    0.30720    0.59360    1.000
    C117     C        0.26750    0.05460    0.65020    1.000
    H81      H        0.25990    0.02230    0.63310    1.000
    C118     C        0.26630    0.14370    0.67560    1.000
    H82      H        0.25960    0.18450    0.67950    1.000
    C119     C        0.24360    0.24900    0.82080    1.000
    H83      H        0.21500    0.23190    0.80380    1.000
    C120     C        0.30190    0.05250    0.68230    1.000
    H84      H        0.32330    0.01930    0.69140    1.000
    C121     C        0.43670    0.18910    0.64890    1.000
    H85      H        0.41150    0.16990    0.66730    1.000
    C122     C        0.41960    0.24290    0.63170    1.000
    H86      H        0.38290    0.26010    0.63860    1.000
    C123     C        0.48940    0.16450    0.63925    1.000
    H87      H        0.50060    0.12860    0.65150    1.000
    C124     C        0.49860    0.09400    0.82550    1.000
    H88      H        0.47790    0.08740    0.84960    1.000
    C125     C        0.99890    0.17140    0.52890    1.000
    H89      H        0.97860    0.17990    0.50490    1.000
    C126     C        0.06210    0.15950    0.53490    1.000
    H90      H        0.08990    0.15600    0.51390    1.000
    C127     C        0.55840    0.09160    0.82000    1.000
    H91      H        0.58640    0.08550    0.84060    1.000
    C128     C        0.28450    0.30600    0.86250    1.000
    H92      H        0.29050    0.33640    0.88140    1.000
    C129     C        0.32760    0.26940    0.84840    1.000
    H93      H        0.36810    0.27020    0.85540    1.000
    N36      N        0.71280    0.32140    0.51968    1.000
    C130     C        0.72980    0.27730    0.54300    1.000
    H94      H        0.70390    0.24990    0.55520    1.000
    C131     C        0.76150    0.35290    0.50960    1.000
    H95      H        0.76190    0.38870    0.49500    1.000
    C132     C        0.81050    0.32400    0.52430    1.000
    H96      H        0.85040    0.33440    0.51970    1.000
    Cd7      Cd       0.16410    0.61447    0.25245    1.000
    Cd8      Cd       0.66309    0.63964    0.10486    1.000
    O13      O        0.12510    0.58270    0.19016    1.000
    O14      O        0.11440    0.68100    0.18769    1.000
    O15      O        0.02514    0.79324    0.03006    1.000
    O16      O        0.10297    0.79263    0.07266    1.000
    N37      N        0.57520    0.65430    0.07339    1.000
    N38      N        0.47640    0.66720    0.06757    1.000
    N39      N        0.25350    0.61720    0.21344    1.000
    N40      N        0.30990    0.63550    0.15955    1.000
    N41      N        0.74340    0.61270    0.14521    1.000
    N42      N        0.80060    0.60940    0.20053    1.000
    N43      N        0.97440    0.60800    0.28872    1.000
    N44      N        0.80060    0.73080    0.32176    1.000
    N45      N        0.73150    0.79250    0.34555    1.000
    N46      N        0.07190    0.59940    0.28020    1.000
    C133     C        0.30100    0.70610    0.10290    1.000
    H97      H        0.26200    0.71550    0.11080    1.000
    C134     C        0.28860    0.56830    0.20510    1.000
    H98      H        0.28840    0.53270    0.21990    1.000
    C135     C        0.32630    0.73390    0.06920    1.000
    N47      N        0.29050    0.77660    0.04703    1.000
    C136     C        0.33360    0.66480    0.12476    1.000
    C137     C        0.32350    0.57920    0.17230    1.000
    H99      H        0.35140    0.55310    0.16080    1.000
    C138     C        0.26840    0.65720    0.18520    1.000
    H100     H        0.25190    0.69550    0.18330    1.000
    C139     C        0.39250    0.65010    0.11200    1.000
    H101     H        0.41460    0.62090    0.12560    1.000
    C140     C        0.41620    0.67940    0.07930    1.000
    C141     C        0.38290    0.72280    0.05830    1.000
    H102     H        0.40020    0.74370    0.03680    1.000
    C142     C        0.52190    0.65750    0.09150    1.000
    H103     H        0.51740    0.65310    0.11950    1.000
    C143     C        0.04820    0.77920    0.06380    1.000
    C144     C        0.80170    0.66750    0.26126    1.000
    H104     H        0.76350    0.68150    0.25490    1.000
    C145     C        0.91410    0.62690    0.28142    1.000
    C146     C        0.88610    0.66790    0.30590    1.000
    H105     H        0.90520    0.68250    0.32900    1.000
    C147     C        0.02070    0.61340    0.26426    1.000
    H106     H        0.01700    0.62630    0.23750    1.000
    C148     C        0.88660    0.60570    0.24620    1.000
    H107     H        0.90580    0.57760    0.22970    1.000
    C149     C        0.82980    0.62750    0.23605    1.000
    C150     C        0.83000    0.68710    0.29620    1.000
    C151     C        0.17310    0.59690    0.10920    1.000
    H108     H        0.19730    0.57590    0.12730    1.000
    C152     C        0.12310    0.62840    0.12466    1.000
    C153     C        0.11900    0.63260    0.17100    1.000
    C154     C        0.18730    0.59560    0.07000    1.000
    H109     H        0.22150    0.57590    0.06070    1.000
    C155     C        0.01080    0.74620    0.09370    1.000
    C156     C        0.08490    0.65860    0.09814    1.000
    C157     C        0.09790    0.65530    0.05653    1.000
    H110     H        0.07210    0.67350    0.03800    1.000
    C158     C        0.02840    0.69140    0.11095    1.000
    C159     C        0.14740    0.62630    0.04270    1.000
    H111     H        0.15560    0.62620    0.01500    1.000
    C160     C        0.95620    0.77080    0.10480    1.000
    H112     H        0.94430    0.80720    0.09360    1.000
    C161     C        0.76750    0.55460    0.15020    1.000
    H113     H        0.75990    0.52230    0.13310    1.000
    C162     C        0.76630    0.64370    0.17560    1.000
    H114     H        0.75960    0.68450    0.17950    1.000
    C163     C        0.74360    0.74900    0.32080    1.000
    H115     H        0.71500    0.73190    0.30380    1.000
    C164     C        0.80190    0.55250    0.18230    1.000
    H116     H        0.82330    0.51930    0.19140    1.000
    C165     C        0.93670    0.68910    0.14890    1.000
    H117     H        0.91150    0.66990    0.16730    1.000
    C166     C        0.91960    0.74290    0.13170    1.000
    H118     H        0.88290    0.76010    0.13860    1.000
    C167     C        0.98940    0.66450    0.13925    1.000
    H119     H        0.00060    0.62860    0.15150    1.000
    C168     C        0.99860    0.59400    0.32550    1.000
    H120     H        0.97790    0.58740    0.34960    1.000
    C169     C        0.49890    0.67140    0.02890    1.000
    H121     H        0.47860    0.67990    0.00490    1.000
    C170     C        0.56210    0.65950    0.03490    1.000
    H122     H        0.58990    0.65600    0.01390    1.000
    C171     C        0.05840    0.59160    0.32000    1.000
    H123     H        0.08640    0.58550    0.34060    1.000
    C172     C        0.78450    0.80600    0.36250    1.000
    H124     H        0.79050    0.83640    0.38140    1.000
    C173     C        0.82760    0.76940    0.34840    1.000
    H125     H        0.86810    0.77020    0.35540    1.000
    N48      N        0.21280    0.82140    0.01968    1.000
    C174     C        0.22980    0.77730    0.04300    1.000
    H126     H        0.20390    0.74990    0.05520    1.000
    C175     C        0.26150    0.85290    0.00960    1.000
    H127     H        0.26190    0.88870    0.99500    1.000
    C176     C        0.31050    0.82400    0.02430    1.000
    H128     H        0.35040    0.83440    0.01970    1.000
    Cd9      Cd       0.61447    0.33590    0.50245    1.000
    Cd10     Cd       0.63964    0.83691    0.35486    1.000
    O17      O        0.58270    0.37490    0.44016    1.000
    O18      O        0.68100    0.38560    0.43769    1.000
    O19      O        0.79324    0.47486    0.28006    1.000
    O20      O        0.79263    0.39703    0.32266    1.000
    N49      N        0.65430    0.92480    0.32339    1.000
    N50      N        0.66720    0.02360    0.31757    1.000
    N51      N        0.61720    0.24650    0.46344    1.000
    N52      N        0.63550    0.19010    0.40955    1.000
    N53      N        0.61270    0.75660    0.39521    1.000
    N54      N        0.60940    0.69940    0.45053    1.000
    N55      N        0.60800    0.52560    0.53872    1.000
    N56      N        0.73080    0.69940    0.57176    1.000
    N57      N        0.79250    0.76850    0.59555    1.000
    N58      N        0.59940    0.42810    0.53020    1.000
    C177     C        0.70610    0.19900    0.35290    1.000
    H129     H        0.71550    0.23800    0.36080    1.000
    C178     C        0.56830    0.21140    0.45510    1.000
    H130     H        0.53270    0.21160    0.46990    1.000
    C179     C        0.73390    0.17370    0.31920    1.000
    N59      N        0.77660    0.20950    0.29703    1.000
    C180     C        0.66480    0.16640    0.37476    1.000
    C181     C        0.57920    0.17650    0.42230    1.000
    H131     H        0.55310    0.14860    0.41080    1.000
    C182     C        0.65720    0.23160    0.43520    1.000
    H132     H        0.69550    0.24810    0.43330    1.000
    C183     C        0.65010    0.10750    0.36200    1.000
    H133     H        0.62090    0.08540    0.37560    1.000
    C184     C        0.67940    0.08380    0.32930    1.000
    C185     C        0.72280    0.11710    0.30830    1.000
    H134     H        0.74370    0.09980    0.28680    1.000
    C186     C        0.65750    0.97810    0.34150    1.000
    H135     H        0.65310    0.98260    0.36950    1.000
    C187     C        0.77920    0.45180    0.31380    1.000
    C188     C        0.66750    0.69830    0.51126    1.000
    H136     H        0.68150    0.73650    0.50490    1.000
    C189     C        0.62690    0.58590    0.53142    1.000
    C190     C        0.66790    0.61390    0.55590    1.000
    H137     H        0.68250    0.59480    0.57900    1.000
    C191     C        0.61340    0.47930    0.51426    1.000
    H138     H        0.62630    0.48300    0.48750    1.000
    C192     C        0.60570    0.61340    0.49620    1.000
    H139     H        0.57760    0.59420    0.47970    1.000
    C193     C        0.62750    0.67020    0.48605    1.000
    C194     C        0.68710    0.67000    0.54620    1.000
    C195     C        0.59690    0.32690    0.35920    1.000
    H140     H        0.57590    0.30270    0.37730    1.000
    C196     C        0.62840    0.37690    0.37466    1.000
    C197     C        0.63260    0.38100    0.42100    1.000
    C198     C        0.59560    0.31270    0.32000    1.000
    H141     H        0.57590    0.27850    0.31070    1.000
    C199     C        0.74620    0.48920    0.34370    1.000
    C200     C        0.65860    0.41510    0.34814    1.000
    C201     C        0.65530    0.40210    0.30653    1.000
    H142     H        0.67350    0.42790    0.28800    1.000
    C202     C        0.69140    0.47160    0.36095    1.000
    C203     C        0.62630    0.35260    0.29270    1.000
    H143     H        0.62620    0.34440    0.26500    1.000
    C204     C        0.77080    0.54380    0.35480    1.000
    H144     H        0.80720    0.55570    0.34360    1.000
    C205     C        0.55460    0.73250    0.40020    1.000
    H145     H        0.52230    0.74010    0.38310    1.000
    C206     C        0.64370    0.73370    0.42560    1.000
    H146     H        0.68450    0.74040    0.42950    1.000
    C207     C        0.74900    0.75640    0.57080    1.000
    H147     H        0.73190    0.78500    0.55380    1.000
    C208     C        0.55250    0.69810    0.43230    1.000
    H148     H        0.51930    0.67670    0.44140    1.000
    C209     C        0.68910    0.56330    0.39890    1.000
    H149     H        0.66990    0.58850    0.41730    1.000
    C210     C        0.74290    0.58040    0.38170    1.000
    H150     H        0.76010    0.61710    0.38860    1.000
    C211     C        0.66450    0.51060    0.38925    1.000
    H151     H        0.62860    0.49940    0.40150    1.000
    C212     C        0.59400    0.50140    0.57550    1.000
    H152     H        0.58740    0.52210    0.59960    1.000
    C213     C        0.67140    0.00110    0.27890    1.000
    H153     H        0.67990    0.02140    0.25490    1.000
    C214     C        0.65950    0.93790    0.28490    1.000
    H154     H        0.65600    0.91010    0.26390    1.000
    C215     C        0.59160    0.44160    0.57000    1.000
    H155     H        0.58550    0.41360    0.59060    1.000
    C216     C        0.80600    0.71550    0.61250    1.000
    H156     H        0.83640    0.70950    0.63140    1.000
    C217     C        0.76940    0.67240    0.59840    1.000
    H157     H        0.77020    0.63190    0.60540    1.000
    N60      N        0.82140    0.28720    0.26968    1.000
    C218     C        0.77730    0.27020    0.29300    1.000
    H158     H        0.74990    0.29610    0.30520    1.000
    C219     C        0.85290    0.23850    0.25960    1.000
    H159     H        0.88870    0.23810    0.24500    1.000
    C220     C        0.82400    0.18950    0.27430    1.000
    H160     H        0.83440    0.14960    0.26970    1.000
    Cd11     Cd       0.11447    0.83590    0.00245    1.000
    Cd12     Cd       0.13964    0.33691    0.85486    1.000
    O21      O        0.08270    0.87490    0.94016    1.000
    O22      O        0.18100    0.88560    0.93769    1.000
    O23      O        0.29324    0.97486    0.78006    1.000
    O24      O        0.29263    0.89703    0.82266    1.000
    N61      N        0.15430    0.42480    0.82339    1.000
    N62      N        0.16720    0.52360    0.81757    1.000
    N63      N        0.11720    0.74650    0.96344    1.000
    N64      N        0.13550    0.69010    0.90955    1.000
    N65      N        0.11270    0.25660    0.89521    1.000
    N66      N        0.10940    0.19940    0.95053    1.000
    N67      N        0.10800    0.02560    0.03872    1.000
    N68      N        0.23080    0.19940    0.07176    1.000
    N69      N        0.29250    0.26850    0.09555    1.000
    N70      N        0.09940    0.92810    0.03020    1.000
    C221     C        0.20610    0.69900    0.85290    1.000
    H161     H        0.21550    0.73800    0.86080    1.000
    C222     C        0.06830    0.71140    0.95510    1.000
    H162     H        0.03270    0.71160    0.96990    1.000
    C223     C        0.23390    0.67370    0.81920    1.000
    N71      N        0.27660    0.70950    0.79703    1.000
    C224     C        0.16480    0.66640    0.87476    1.000
    C225     C        0.07920    0.67650    0.92230    1.000
    H163     H        0.05310    0.64860    0.91080    1.000
    C226     C        0.15720    0.73160    0.93520    1.000
    H164     H        0.19550    0.74810    0.93330    1.000
    C227     C        0.15010    0.60750    0.86200    1.000
    H165     H        0.12090    0.58540    0.87560    1.000
    C228     C        0.17940    0.58380    0.82930    1.000
    C229     C        0.22280    0.61710    0.80830    1.000
    H166     H        0.24370    0.59980    0.78680    1.000
    C230     C        0.15750    0.47810    0.84150    1.000
    H167     H        0.15310    0.48260    0.86950    1.000
    C231     C        0.27920    0.95180    0.81380    1.000
    C232     C        0.16750    0.19830    0.01126    1.000
    H168     H        0.18150    0.23650    0.00490    1.000
    C233     C        0.12690    0.08590    0.03142    1.000
    C234     C        0.16790    0.11390    0.05590    1.000
    H169     H        0.18250    0.09480    0.07900    1.000
    C235     C        0.11340    0.97930    0.01426    1.000
    H170     H        0.12630    0.98300    0.98750    1.000
    C236     C        0.10570    0.11340    0.99620    1.000
    H171     H        0.07760    0.09420    0.97970    1.000
    C237     C        0.12750    0.17020    0.98605    1.000
    C238     C        0.18710    0.17000    0.04620    1.000
    C239     C        0.09690    0.82690    0.85920    1.000
    H172     H        0.07590    0.80270    0.87730    1.000
    C240     C        0.12840    0.87690    0.87466    1.000
    C241     C        0.13260    0.88100    0.92100    1.000
    C242     C        0.09560    0.81270    0.82000    1.000
    H173     H        0.07590    0.77850    0.81070    1.000
    C243     C        0.24620    0.98920    0.84370    1.000
    C244     C        0.15860    0.91510    0.84814    1.000
    C245     C        0.15530    0.90210    0.80653    1.000
    H174     H        0.17350    0.92790    0.78800    1.000
    C246     C        0.19140    0.97160    0.86095    1.000
    C247     C        0.12630    0.85260    0.79270    1.000
    H175     H        0.12620    0.84440    0.76500    1.000
    C248     C        0.27080    0.04380    0.85480    1.000
    H176     H        0.30720    0.05570    0.84360    1.000
    C249     C        0.05460    0.23250    0.90020    1.000
    H177     H        0.02230    0.24010    0.88310    1.000
    C250     C        0.14370    0.23370    0.92560    1.000
    H178     H        0.18450    0.24040    0.92950    1.000
    C251     C        0.24900    0.25640    0.07080    1.000
    H179     H        0.23190    0.28500    0.05380    1.000
    C252     C        0.05250    0.19810    0.93230    1.000
    H180     H        0.01930    0.17670    0.94140    1.000
    C253     C        0.18910    0.06330    0.89890    1.000
    H181     H        0.16990    0.08850    0.91730    1.000
    C254     C        0.24290    0.08040    0.88170    1.000
    H182     H        0.26010    0.11710    0.88860    1.000
    C255     C        0.16450    0.01060    0.88925    1.000
    H183     H        0.12860    0.99940    0.90150    1.000
    C256     C        0.09400    0.00140    0.07550    1.000
    H184     H        0.08740    0.02210    0.09960    1.000
    C257     C        0.17140    0.50110    0.77890    1.000
    H185     H        0.17990    0.52140    0.75490    1.000
    C258     C        0.15950    0.43790    0.78490    1.000
    H186     H        0.15600    0.41010    0.76390    1.000
    C259     C        0.09160    0.94160    0.07000    1.000
    H187     H        0.08550    0.91360    0.09060    1.000
    C260     C        0.30600    0.21550    0.11250    1.000
    H188     H        0.33640    0.20950    0.13140    1.000
    C261     C        0.26940    0.17240    0.09840    1.000
    H189     H        0.27020    0.13190    0.10540    1.000
    N72      N        0.32140    0.78720    0.76968    1.000
    C262     C        0.27730    0.77020    0.79300    1.000
    H190     H        0.24990    0.79610    0.80520    1.000
    C263     C        0.35290    0.73850    0.75960    1.000
    H191     H        0.38870    0.73810    0.74500    1.000
    C264     C        0.32400    0.68950    0.77430    1.000
    H192     H        0.33440    0.64960    0.76970    1.000
    Cd13     Cd       0.88553    0.16410    0.00245    1.000
    Cd14     Cd       0.86036    0.66309    0.85486    1.000
    O25      O        0.91730    0.12510    0.94016    1.000
    O26      O        0.81900    0.11440    0.93769    1.000
    O27      O        0.70676    0.02514    0.78006    1.000
    O28      O        0.70737    0.10297    0.82266    1.000
    N73      N        0.84570    0.57520    0.82339    1.000
    N74      N        0.83280    0.47640    0.81757    1.000
    N75      N        0.88280    0.25350    0.96344    1.000
    N76      N        0.86450    0.30990    0.90955    1.000
    N77      N        0.88730    0.74340    0.89521    1.000
    N78      N        0.89060    0.80060    0.95053    1.000
    N79      N        0.89200    0.97440    0.03872    1.000
    N80      N        0.76920    0.80060    0.07176    1.000
    N81      N        0.70750    0.73150    0.09555    1.000
    N82      N        0.90060    0.07190    0.03020    1.000
    C265     C        0.79390    0.30100    0.85290    1.000
    H193     H        0.78450    0.26200    0.86080    1.000
    C266     C        0.93170    0.28860    0.95510    1.000
    H194     H        0.96730    0.28840    0.96990    1.000
    C267     C        0.76610    0.32630    0.81920    1.000
    N83      N        0.72340    0.29050    0.79703    1.000
    C268     C        0.83520    0.33360    0.87476    1.000
    C269     C        0.92080    0.32350    0.92230    1.000
    H195     H        0.94690    0.35140    0.91080    1.000
    C270     C        0.84280    0.26840    0.93520    1.000
    H196     H        0.80450    0.25190    0.93330    1.000
    C271     C        0.84990    0.39250    0.86200    1.000
    H197     H        0.87910    0.41460    0.87560    1.000
    C272     C        0.82060    0.41620    0.82930    1.000
    C273     C        0.77720    0.38290    0.80830    1.000
    H198     H        0.75630    0.40020    0.78680    1.000
    C274     C        0.84250    0.52190    0.84150    1.000
    H199     H        0.84690    0.51740    0.86950    1.000
    C275     C        0.72080    0.04820    0.81380    1.000
    C276     C        0.83250    0.80170    0.01126    1.000
    H200     H        0.81850    0.76350    0.00490    1.000
    C277     C        0.87310    0.91410    0.03142    1.000
    C278     C        0.83210    0.88610    0.05590    1.000
    H201     H        0.81750    0.90520    0.07900    1.000
    C279     C        0.88660    0.02070    0.01426    1.000
    H202     H        0.87370    0.01700    0.98750    1.000
    C280     C        0.89430    0.88660    0.99620    1.000
    H203     H        0.92240    0.90580    0.97970    1.000
    C281     C        0.87250    0.82980    0.98605    1.000
    C282     C        0.81290    0.83000    0.04620    1.000
    C283     C        0.90310    0.17310    0.85920    1.000
    H204     H        0.92410    0.19730    0.87730    1.000
    C284     C        0.87160    0.12310    0.87466    1.000
    C285     C        0.86740    0.11900    0.92100    1.000
    C286     C        0.90440    0.18730    0.82000    1.000
    H205     H        0.92410    0.22150    0.81070    1.000
    C287     C        0.75380    0.01080    0.84370    1.000
    C288     C        0.84140    0.08490    0.84814    1.000
    C289     C        0.84470    0.09790    0.80653    1.000
    H206     H        0.82650    0.07210    0.78800    1.000
    C290     C        0.80860    0.02840    0.86095    1.000
    C291     C        0.87370    0.14740    0.79270    1.000
    H207     H        0.87380    0.15560    0.76500    1.000
    C292     C        0.72920    0.95620    0.85480    1.000
    H208     H        0.69280    0.94430    0.84360    1.000
    C293     C        0.94540    0.76750    0.90020    1.000
    H209     H        0.97770    0.75990    0.88310    1.000
    C294     C        0.85630    0.76630    0.92560    1.000
    H210     H        0.81550    0.75960    0.92950    1.000
    C295     C        0.75100    0.74360    0.07080    1.000
    H211     H        0.76810    0.71500    0.05380    1.000
    C296     C        0.94750    0.80190    0.93230    1.000
    H212     H        0.98070    0.82330    0.94140    1.000
    C297     C        0.81090    0.93670    0.89890    1.000
    H213     H        0.83010    0.91150    0.91730    1.000
    C298     C        0.75710    0.91960    0.88170    1.000
    H214     H        0.73990    0.88290    0.88860    1.000
    C299     C        0.83550    0.98940    0.88925    1.000
    H215     H        0.87140    0.00060    0.90150    1.000
    C300     C        0.90600    0.99860    0.07550    1.000
    H216     H        0.91260    0.97790    0.09960    1.000
    C301     C        0.82860    0.49890    0.77890    1.000
    H217     H        0.82010    0.47860    0.75490    1.000
    C302     C        0.84050    0.56210    0.78490    1.000
    H218     H        0.84400    0.58990    0.76390    1.000
    C303     C        0.90840    0.05840    0.07000    1.000
    H219     H        0.91450    0.08640    0.09060    1.000
    C304     C        0.69400    0.78450    0.11250    1.000
    H220     H        0.66360    0.79050    0.13140    1.000
    C305     C        0.73060    0.82760    0.09840    1.000
    H221     H        0.72980    0.86810    0.10540    1.000
    N84      N        0.67860    0.21280    0.76968    1.000
    C306     C        0.72270    0.22980    0.79300    1.000
    H222     H        0.75010    0.20390    0.80520    1.000
    C307     C        0.64710    0.26150    0.75960    1.000
    H223     H        0.61130    0.26190    0.74500    1.000
    C308     C        0.67600    0.31050    0.77430    1.000
    H224     H        0.66560    0.35040    0.76970    1.000
    Cd15     Cd       0.38553    0.66410    0.50245    1.000
    Cd16     Cd       0.36036    0.16309    0.35486    1.000
    O29      O        0.41730    0.62510    0.44016    1.000
    O30      O        0.31900    0.61440    0.43769    1.000
    O31      O        0.20676    0.52514    0.28006    1.000
    O32      O        0.20737    0.60297    0.32266    1.000
    N85      N        0.34570    0.07520    0.32339    1.000
    N86      N        0.33280    0.97640    0.31757    1.000
    N87      N        0.38280    0.75350    0.46344    1.000
    N88      N        0.36450    0.80990    0.40955    1.000
    N89      N        0.38730    0.24340    0.39521    1.000
    N90      N        0.39060    0.30060    0.45053    1.000
    N91      N        0.39200    0.47440    0.53872    1.000
    N92      N        0.26920    0.30060    0.57176    1.000
    N93      N        0.20750    0.23150    0.59555    1.000
    N94      N        0.40060    0.57190    0.53020    1.000
    C309     C        0.29390    0.80100    0.35290    1.000
    H225     H        0.28450    0.76200    0.36080    1.000
    C310     C        0.43170    0.78860    0.45510    1.000
    H226     H        0.46730    0.78840    0.46990    1.000
    C311     C        0.26610    0.82630    0.31920    1.000
    N95      N        0.22340    0.79050    0.29703    1.000
    C312     C        0.33520    0.83360    0.37476    1.000
    C313     C        0.42080    0.82350    0.42230    1.000
    H227     H        0.44690    0.85140    0.41080    1.000
    C314     C        0.34280    0.76840    0.43520    1.000
    H228     H        0.30450    0.75190    0.43330    1.000
    C315     C        0.34990    0.89250    0.36200    1.000
    H229     H        0.37910    0.91460    0.37560    1.000
    C316     C        0.32060    0.91620    0.32930    1.000
    C317     C        0.27720    0.88290    0.30830    1.000
    H230     H        0.25630    0.90020    0.28680    1.000
    C318     C        0.34250    0.02190    0.34150    1.000
    H231     H        0.34690    0.01740    0.36950    1.000
    C319     C        0.22080    0.54820    0.31380    1.000
    C320     C        0.33250    0.30170    0.51126    1.000
    H232     H        0.31850    0.26350    0.50490    1.000
    C321     C        0.37310    0.41410    0.53142    1.000
    C322     C        0.33210    0.38610    0.55590    1.000
    H233     H        0.31750    0.40520    0.57900    1.000
    C323     C        0.38660    0.52070    0.51426    1.000
    H234     H        0.37370    0.51700    0.48750    1.000
    C324     C        0.39430    0.38660    0.49620    1.000
    H235     H        0.42240    0.40580    0.47970    1.000
    C325     C        0.37250    0.32980    0.48605    1.000
    C326     C        0.31290    0.33000    0.54620    1.000
    C327     C        0.40310    0.67310    0.35920    1.000
    H236     H        0.42410    0.69730    0.37730    1.000
    C328     C        0.37160    0.62310    0.37466    1.000
    C329     C        0.36740    0.61900    0.42100    1.000
    C330     C        0.40440    0.68730    0.32000    1.000
    H237     H        0.42410    0.72150    0.31070    1.000
    C331     C        0.25380    0.51080    0.34370    1.000
    C332     C        0.34140    0.58490    0.34814    1.000
    C333     C        0.34470    0.59790    0.30653    1.000
    H238     H        0.32650    0.57210    0.28800    1.000
    C334     C        0.30860    0.52840    0.36095    1.000
    C335     C        0.37370    0.64740    0.29270    1.000
    H239     H        0.37380    0.65560    0.26500    1.000
    C336     C        0.22920    0.45620    0.35480    1.000
    H240     H        0.19280    0.44430    0.34360    1.000
    C337     C        0.44540    0.26750    0.40020    1.000
    H241     H        0.47770    0.25990    0.38310    1.000
    C338     C        0.35630    0.26630    0.42560    1.000
    H242     H        0.31550    0.25960    0.42950    1.000
    C339     C        0.25100    0.24360    0.57080    1.000
    H243     H        0.26810    0.21500    0.55380    1.000
    C340     C        0.44750    0.30190    0.43230    1.000
    H244     H        0.48070    0.32330    0.44140    1.000
    C341     C        0.31090    0.43670    0.39890    1.000
    H245     H        0.33010    0.41150    0.41730    1.000
    C342     C        0.25710    0.41960    0.38170    1.000
    H246     H        0.23990    0.38290    0.38860    1.000
    C343     C        0.33550    0.48940    0.38925    1.000
    H247     H        0.37140    0.50060    0.40150    1.000
    C344     C        0.40600    0.49860    0.57550    1.000
    H248     H        0.41260    0.47790    0.59960    1.000
    C345     C        0.32860    0.99890    0.27890    1.000
    H249     H        0.32010    0.97860    0.25490    1.000
    C346     C        0.34050    0.06210    0.28490    1.000
    H250     H        0.34400    0.08990    0.26390    1.000
    C347     C        0.40840    0.55840    0.57000    1.000
    H251     H        0.41450    0.58640    0.59060    1.000
    C348     C        0.19400    0.28450    0.61250    1.000
    H252     H        0.16360    0.29050    0.63140    1.000
    C349     C        0.23060    0.32760    0.59840    1.000
    H253     H        0.22980    0.36810    0.60540    1.000
    N96      N        0.17860    0.71280    0.26968    1.000
    C350     C        0.22270    0.72980    0.29300    1.000
    H254     H        0.25010    0.70390    0.30520    1.000
    C351     C        0.14710    0.76150    0.25960    1.000
    H255     H        0.11130    0.76190    0.24500    1.000
    C352     C        0.17600    0.81050    0.27430    1.000
    H256     H        0.16560    0.85040    0.26970    1.000
