# CIF file generated by openbabel 3.1.0, see https://openbabel.org
data_I
_chemical_name_common 'ja4015666_si_005_clean'
_cell_length_a 10.027
_cell_length_b 18.42
_cell_length_c 20.577
_cell_angle_alpha 89.269
_cell_angle_beta 84.18
_cell_angle_gamma 88.402
_space_group_name_H-M_alt 'P 1'
_space_group_name_Hall 'P 1'
loop_
    _symmetry_equiv_pos_as_xyz
    x,y,z
loop_
    _atom_site_label
    _atom_site_type_symbol
    _atom_site_fract_x
    _atom_site_fract_y
    _atom_site_fract_z
    _atom_site_occupancy
    Cd1      Cd       0.39173    0.54705    0.95952    1.000
    Cd2      Cd       0.60827    0.45295    0.04048    1.000
    Cd3      Cd       0.10324    0.04402    0.54326    1.000
    Cd4      Cd       0.89676    0.95598    0.45674    1.000
    H1       H        0.63620    0.81260    0.31120    1.000
    H2       H        0.60020    0.61160    0.19890    1.000
    H3       H        0.57630    0.05240    0.56140    1.000
    H4       H        0.76790    0.17450    0.68180    1.000
    H5       H        0.11910    0.67950    0.81660    1.000
    H6       H        0.09170    0.88230    0.70100    1.000
    H7       H        0.42370    0.94760    0.43860    1.000
    H8       H        0.90830    0.11770    0.29900    1.000
    H9       H        0.72040    0.67110    0.81120    1.000
    H10      H        0.30440    0.72020    0.12010    1.000
    H11      H        0.27960    0.32890    0.18880    1.000
    H12      H        0.92630    0.20220    0.21540    1.000
    H13      H        0.20540    0.30580    0.30190    1.000
    H14      H        0.88090    0.32050    0.18340    1.000
    H15      H        0.59410    0.69590    0.28110    1.000
    H16      H        0.79460    0.69420    0.69810    1.000
    H17      H        0.10100    0.44790    0.05450    1.000
    H18      H        0.40590    0.30410    0.71890    1.000
    H19      H        0.23210    0.82550    0.31820    1.000
    H20      H        0.39980    0.38840    0.80110    1.000
    H21      H        0.29270    0.80360    0.20310    1.000
    H22      H        0.18350    0.22330    0.38900    1.000
    H23      H        0.89900    0.55210    0.94550    1.000
    H24      H        0.81650    0.77670    0.61100    1.000
    H25      H        0.36380    0.18740    0.68880    1.000
    H26      H        0.70730    0.19640    0.79690    1.000
    H27      H        0.69560    0.27980    0.87990    1.000
    H28      H        0.07370    0.79780    0.78460    1.000
    C1       C        0.69220    0.10880    0.61610    1.000
    C2       C        0.93120    0.73670    0.74950    1.000
    C3       C        0.53770    0.65140    0.19930    1.000
    C4       C        0.63640    0.28520    0.84680    1.000
    C5       C        0.44020    0.75820    0.25190    1.000
    C6       C        0.90460    0.58580    0.91010    1.000
    C7       C        0.97030    0.38860    0.11550    1.000
    C8       C        0.17610    0.92050    0.41610    1.000
    C9       C        0.06880    0.26330    0.25050    1.000
    C10      C        0.46490    0.60420    0.09580    1.000
    C11      C        0.42640    0.91240    0.40510    1.000
    C12      C        0.53320    0.70090    0.24880    1.000
    C13      C        0.45460    0.65750    0.15030    1.000
    C14      C        0.95930    0.83680    0.64650    1.000
    C15      C        0.96750    0.15690    0.30060    1.000
    C16      C        0.85700    0.73210    0.69850    1.000
    C17      C        0.79920    0.65670    0.83060    1.000
    C18      C        0.57360    0.08760    0.59490    1.000
    C19      C        0.43460    0.81170    0.30670    1.000
    C20      C        0.53510    0.39580    0.90420    1.000
    C21      C        0.65420    0.58540    0.91360    1.000
    C22      C        0.82390    0.07950    0.58390    1.000
    C23      C        0.46680    0.29910    0.75120    1.000
    C24      C        0.55280    0.83290    0.32940    1.000
    C25      C        0.86950    0.78130    0.64640    1.000
    C26      C        0.64360    0.23560    0.79730    1.000
    C27      C        0.03490    0.66070    0.83310    1.000
    C28      C        0.20990    0.39060    0.11610    1.000
    C29      C        0.97570    0.89080    0.59070    1.000
    C30      C        0.79010    0.60940    0.88390    1.000
    C31      C        0.07770    0.31680    0.19470    1.000
    C32      C        0.67490    0.90790    0.40290    1.000
    C33      C        0.15330    0.58550    0.91350    1.000
    C34      C        0.02040    0.79350    0.74930    1.000
    C35      C        0.14300    0.26790    0.30150    1.000
    C36      C        0.55980    0.24180    0.74810    1.000
    C37      C        0.03250    0.84310    0.69940    1.000
    C38      C        0.02430    0.10920    0.40930    1.000
    C39      C        0.36360    0.71480    0.15320    1.000
    C40      C        0.32510    0.09210    0.59710    1.000
    C41      C        0.97960    0.20650    0.25070    1.000
    C42      C        0.30780    0.89120    0.38390    1.000
    C43      C        0.44720    0.16710    0.67060    1.000
    C44      C        0.56540    0.18830    0.69330    1.000
    C45      C        0.45000    0.11580    0.62090    1.000
    C46      C        0.84670    0.41450    0.08650    1.000
    C47      C        0.46230    0.34860    0.80070    1.000
    C48      C        0.92230    0.68320    0.80530    1.000
    C49      C        0.31290    0.84040    0.33380    1.000
    C50      C        0.54540    0.34250    0.84970    1.000
    C51      C        0.20080    0.34330    0.16940    1.000
    C52      C        0.13050    0.21870    0.35360    1.000
    C53      C        0.96510    0.33930    0.16690    1.000
    C54      C        0.34580    0.41460    0.08640    1.000
    C55      C        0.02970    0.61140    0.88450    1.000
    C56      C        0.09540    0.41420    0.08990    1.000
    C57      C        0.04070    0.16320    0.35350    1.000
    C58      C        0.35640    0.76440    0.20270    1.000
    C59      C        0.68710    0.15960    0.66620    1.000
    C60      C        0.55000    0.88420    0.37910    1.000
    O1       O        0.25340    0.62580    0.90690    1.000
    O2       O        0.33020    0.04630    0.55520    1.000
    O3       O        0.66980    0.95370    0.44480    1.000
    O4       O        0.39410    0.61540    0.04979    1.000
    O5       O        0.05730    0.93970    0.59710    1.000
    O6       O        0.68700    0.96900    0.42670    1.000
    O7       O        0.18310    0.96720    0.45780    1.000
    O8       O        0.94270    0.06030    0.40290    1.000
    O9       O        0.45280    0.44810    0.89904    1.000
    O10      O        0.22610    0.13740    0.59600    1.000
    O11      O        0.44810    0.39280    0.10890    1.000
    O12      O        0.21450    0.11540    0.62490    1.000
    O13      O        0.74660    0.37420    0.09310    1.000
    O14      O        0.31300    0.03100    0.57330    1.000
    O15      O        0.09080    0.11770    0.45569    1.000
    O16      O        0.84010    0.47010    0.05680    1.000
    O17      O        0.54720    0.55190    0.10096    1.000
    O18      O        0.92890    0.10160    0.60050    1.000
    O19      O        0.55190    0.60720    0.89110    1.000
    O20      O        0.07110    0.89840    0.39950    1.000
    O21      O        0.34950    0.45580    0.03865    1.000
    O22      O        0.78550    0.88460    0.37510    1.000
    O23      O        0.15990    0.52990    0.94320    1.000
    O24      O        0.90920    0.88230    0.54431    1.000
    O25      O        0.60590    0.38460    0.95021    1.000
    O26      O        0.65050    0.54420    0.96135    1.000
    O27      O        0.77390    0.86260    0.40400    1.000
    O28      O        0.81690    0.03280    0.54220    1.000
