# CIF file generated by openbabel 3.1.0, see https://openbabel.org
data_I
_chemical_name_common 'EVUQUI_clean'
_cell_length_a 9.5211
_cell_length_b 9.9835
_cell_length_c 11.4843
_cell_angle_alpha 96.342
_cell_angle_beta 97.063
_cell_angle_gamma 111.763
_space_group_name_H-M_alt 'P 1'
_space_group_name_Hall 'P 1'
loop_
    _symmetry_equiv_pos_as_xyz
    x,y,z
loop_
    _atom_site_label
    _atom_site_type_symbol
    _atom_site_fract_x
    _atom_site_fract_y
    _atom_site_fract_z
    _atom_site_occupancy
    Nd1      Nd       0.71371    0.95488    0.00921    1.000
    Nd2      Nd       0.28629    0.04512    0.99079    1.000
    H1       H        0.31910    0.49610    0.02870    1.000
    H2       H        0.19430    0.79330    0.21340    1.000
    H3       H        0.92040    0.36220    0.15710    1.000
    H4       H        0.17120    0.59130    0.41950    1.000
    H5       H        0.25690    0.70690    0.61860    1.000
    H6       H        0.94670    0.89490    0.58620    1.000
    H7       H        0.83220    0.84730    0.31850    1.000
    H8       H        0.73790    0.69620    0.31540    1.000
    H9       H        0.68090    0.50390    0.97130    1.000
    H10      H        0.80570    0.20670    0.78660    1.000
    H11      H        0.07960    0.63780    0.84290    1.000
    H12      H        0.82880    0.40870    0.58050    1.000
    H13      H        0.74310    0.29310    0.38140    1.000
    H14      H        0.05330    0.10510    0.41380    1.000
    H15      H        0.16780    0.15270    0.68150    1.000
    H16      H        0.26210    0.30380    0.68460    1.000
    C1       C        0.07760    0.25240    0.02530    1.000
    C2       C        0.11170    0.40720    0.08170    1.000
    C3       C        0.24760    0.51840    0.06980    1.000
    C4       C        0.27820    0.66300    0.11850    1.000
    C5       C        0.42240    0.78270    0.10120    1.000
    C6       C        0.17620    0.69500    0.18240    1.000
    C7       C        0.04840    0.58100    0.19990    1.000
    C8       C        0.01240    0.43820    0.14770    1.000
    C9       C        0.00740    0.67590    0.38550    1.000
    C10      C        0.12590    0.65300    0.45340    1.000
    C11      C        0.17650    0.72200    0.57140    1.000
    C12      C        0.11110    0.81270    0.62110    1.000
    C13      C        0.17180    0.89420    0.74460    1.000
    C14      C        0.99180    0.83320    0.55220    1.000
    C15      C        0.93830    0.76420    0.43430    1.000
    C16      C        0.92240    0.74760    0.97470    1.000
    C17      C        0.88830    0.59280    0.91830    1.000
    C18      C        0.75240    0.48160    0.93020    1.000
    C19      C        0.72180    0.33700    0.88150    1.000
    C20      C        0.57760    0.21730    0.89880    1.000
    C21      C        0.82380    0.30500    0.81760    1.000
    C22      C        0.95160    0.41900    0.80010    1.000
    C23      C        0.98760    0.56180    0.85230    1.000
    C24      C        0.99260    0.32410    0.61450    1.000
    C25      C        0.87410    0.34700    0.54660    1.000
    C26      C        0.82350    0.27800    0.42860    1.000
    C27      C        0.88890    0.18730    0.37890    1.000
    C28      C        0.82820    0.10580    0.25540    1.000
    C29      C        0.00820    0.16680    0.44780    1.000
    C30      C        0.06170    0.23580    0.56570    1.000
    N1       N        0.81170    0.77600    0.36470    1.000
    N2       N        0.18830    0.22400    0.63530    1.000
    O1       O        0.54460    0.76090    0.11040    1.000
    O2       O        0.11960    0.98730    0.78500    1.000
    O3       O        0.18520    0.22770    0.98770    1.000
    O4       O        0.94560    0.15880    0.01880    1.000
    O5       O        0.41650    0.90230    0.07680    1.000
    O6       O        0.94670    0.60970    0.26790    1.000
    O7       O        0.27740    0.87370    0.80970    1.000
    O8       O        0.45540    0.23910    0.88960    1.000
    O9       O        0.88040    0.01270    0.21500    1.000
    O10      O        0.81480    0.77230    0.01230    1.000
    O11      O        0.05440    0.84120    0.98120    1.000
    O12      O        0.58350    0.09770    0.92320    1.000
    O13      O        0.05330    0.39030    0.73210    1.000
    O14      O        0.72260    0.12630    0.19030    1.000
