# CIF file generated by openbabel 3.1.0, see https://openbabel.org
data_I
_chemical_name_common 'image0'
_cell_length_a 8.911
_cell_length_b 8.098
_cell_length_c 10.289
_cell_angle_alpha 90
_cell_angle_beta 101.433
_cell_angle_gamma 90
_space_group_name_H-M_alt 'P 1'
_space_group_name_Hall 'P 1'
loop_
    _symmetry_equiv_pos_as_xyz
    x,y,z
loop_
    _atom_site_label
    _atom_site_type_symbol
    _atom_site_fract_x
    _atom_site_fract_y
    _atom_site_fract_z
    _atom_site_occupancy
    Zn1      Zn       0.31382    0.05878    0.56136    1.000
    O1       O        0.84180    0.12940    0.45900    1.000
    N1       N        0.37840    0.22050    0.71230    1.000
    C1       C        0.98160    0.09160    0.49230    1.000
    N2       N        0.37690    0.36170    0.89660    1.000
    N3       N        0.51980    0.38150    0.86530    1.000
    C2       C        0.29920    0.26590    0.80350    1.000
    H1       H        0.19870    0.23310    0.80150    1.000
    C3       C        0.51380    0.29440    0.75450    1.000
    O2       O        0.09090    0.19020    0.51100    1.000
    N4       N        0.63440    0.28290    0.69020    1.000
    H2       H        0.71880    0.33340    0.72120    1.000
    H3       H        0.62550    0.22530    0.61890    1.000
    Zn2      Zn       0.68618    0.55878    0.93864    1.000
    O3       O        0.15820    0.62940    0.04100    1.000
    N5       N        0.62160    0.72050    0.78770    1.000
    C4       C        0.01840    0.59160    0.00770    1.000
    N6       N        0.62310    0.86170    0.60340    1.000
    N7       N        0.48020    0.88150    0.63470    1.000
    C5       C        0.70080    0.76590    0.69650    1.000
    H4       H        0.80130    0.73310    0.69850    1.000
    C6       C        0.48620    0.79440    0.74550    1.000
    O4       O        0.90910    0.69020    0.98900    1.000
    N8       N        0.36560    0.78290    0.80980    1.000
    H5       H        0.28120    0.83340    0.77880    1.000
    H6       H        0.37450    0.72530    0.88110    1.000
    Zn3      Zn       0.68618    0.94122    0.43864    1.000
    O5       O        0.15820    0.87060    0.54100    1.000
    N9       N        0.62160    0.77950    0.28770    1.000
    C7       C        0.01840    0.90840    0.50770    1.000
    N10      N        0.62310    0.63830    0.10340    1.000
    N11      N        0.48020    0.61850    0.13470    1.000
    C8       C        0.70080    0.73410    0.19650    1.000
    H7       H        0.80130    0.76690    0.19850    1.000
    C9       C        0.48620    0.70560    0.24550    1.000
    O6       O        0.90910    0.80980    0.48900    1.000
    N12      N        0.36560    0.71710    0.30980    1.000
    H8       H        0.28120    0.66660    0.27880    1.000
    H9       H        0.37450    0.77470    0.38110    1.000
    Zn4      Zn       0.31382    0.44122    0.06136    1.000
    O7       O        0.84180    0.37060    0.95900    1.000
    N13      N        0.37840    0.27950    0.21230    1.000
    C10      C        0.98160    0.40840    0.99230    1.000
    N14      N        0.37690    0.13830    0.39660    1.000
    N15      N        0.51980    0.11850    0.36530    1.000
    C11      C        0.29920    0.23410    0.30350    1.000
    H10      H        0.19870    0.26690    0.30150    1.000
    C12      C        0.51380    0.20560    0.25450    1.000
    O8       O        0.09090    0.30980    0.01100    1.000
    N16      N        0.63440    0.21710    0.19020    1.000
    H11      H        0.71880    0.16660    0.22120    1.000
    H12      H        0.62550    0.27470    0.11890    1.000
