# CIF file generated by openbabel 3.1.0, see https://openbabel.org
data_I
_chemical_name_common 'image0'
_cell_length_a 25.997
_cell_length_b 25.997
_cell_length_c 26.7847
_cell_angle_alpha 90
_cell_angle_beta 90
_cell_angle_gamma 90
_space_group_name_H-M_alt 'P 1'
_space_group_name_Hall 'P 1'
loop_
    _symmetry_equiv_pos_as_xyz
    x,y,z
loop_
    _atom_site_label
    _atom_site_type_symbol
    _atom_site_fract_x
    _atom_site_fract_y
    _atom_site_fract_z
    _atom_site_occupancy
    La1      La       0.75106    0.74073    0.08273    1.000
    O1       O        0.78940    0.30780    0.19040    1.000
    O2       O        0.71800    0.16870    0.20270    1.000
    O3       O        0.82800    0.20340    0.19880    1.000
    O4       O        0.68540    0.27620    0.20350    1.000
    O5       O        0.82780    0.77920    0.04550    1.000
    O6       O        0.77940    0.80650    0.14060    1.000
    O7       O        0.68880    0.71270    0.01890    1.000
    O8       O        0.79230    0.67190    0.02760    1.000
    O9       O        0.32600    0.23010    0.12830    1.000
    O10      O        0.72090    0.81440    0.03560    1.000
    O11      O        0.18400    0.29680    0.14110    1.000
    O12      O        0.70790    0.66120    0.11830    1.000
    N1       N        0.77480    0.35669    0.18792    1.000
    C1       C        0.73835    0.36752    0.15478    1.000
    H1       H        0.72140    0.34030    0.13770    1.000
    C2       C        0.72481    0.41777    0.14499    1.000
    H2       H        0.69870    0.42480    0.12110    1.000
    C3       C        0.74838    0.45780    0.16915    1.000
    C4       C        0.78610    0.44488    0.20310    1.000
    H3       H        0.80370    0.47140    0.22050    1.000
    C5       C        0.79890    0.39429    0.21233    1.000
    H4       H        0.82480    0.38630    0.23610    1.000
    N2       N        0.72520    0.11740    0.19890    1.000
    C6       C        0.69340    0.08205    0.21730    1.000
    H5       H        0.66650    0.09190    0.23930    1.000
    C7       C        0.69960    0.03100    0.20430    1.000
    H6       H        0.67460    0.00660    0.21470    1.000
    C8       C        0.74130    0.01480    0.17680    1.000
    C9       C        0.77460    0.05275    0.16180    1.000
    H7       H        0.80660    0.04340    0.14720    1.000
    C10      C        0.76280    0.10436    0.16730    1.000
    H8       H        0.78110    0.12990    0.14920    1.000
    N3       N        0.87551    0.21417    0.18930    1.000
    C11      C        0.88693    0.25480    0.16100    1.000
    H9       H        0.86030    0.27620    0.14820    1.000
    C12      C        0.93783    0.26560    0.15030    1.000
    H10      H        0.94580    0.29030    0.12530    1.000
    C13      C        0.97730    0.24110    0.17510    1.000
    C14      C        0.96385    0.20000    0.20470    1.000
    H11      H        0.98980    0.18090    0.22140    1.000
    C15      C        0.91278    0.18630    0.21010    1.000
    H12      H        0.90410    0.15660    0.22900    1.000
    N4       N        0.63540    0.26680    0.18850    1.000
    C16      C        0.60156    0.30040    0.20680    1.000
    H13      H        0.61270    0.32810    0.22730    1.000
    C17      C        0.54993    0.29440    0.19560    1.000
    H14      H        0.52540    0.31690    0.21030    1.000
    C18      C        0.53350    0.25660    0.16350    1.000
    C19      C        0.56997    0.22260    0.14730    1.000
    H15      H        0.55950    0.19330    0.12870    1.000
    C20      C        0.62140    0.22980    0.15710    1.000
    H16      H        0.64660    0.20870    0.14160    1.000
    N5       N        0.87538    0.77150    0.02760    1.000
    C21      C        0.88939    0.73220    0.99880    1.000
    H17      H        0.86510    0.70680    0.98900    1.000
    C22      C        0.94026    0.72920    0.98330    1.000
    H18      H        0.94900    0.70760    0.95600    1.000
    C23      C        0.97830    0.75690    0.00710    1.000
    C24      C        0.96187    0.79450    0.03980    1.000
    H19      H        0.98640    0.81700    0.05450    1.000
    C25      C        0.91044    0.80010    0.05130    1.000
    H20      H        0.90000    0.82410    0.07610    1.000
    N6       N        0.76718    0.85670    0.14980    1.000
    C26      C        0.80120    0.89079    0.13280    1.000
    H21      H        0.83150    0.87920    0.11630    1.000
    C27      C        0.79280    0.94290    0.13900    1.000
    H22      H        0.81550    0.96670    0.12350    1.000
    C28      C        0.75240    0.96100    0.16720    1.000
    C29      C        0.71610    0.92443    0.17960    1.000
    H23      H        0.68290    0.93510    0.19010    1.000
    C30      C        0.72720    0.87250    0.17700    1.000
    H24      H        0.70650    0.84830    0.19450    1.000
    N7       N        0.63860    0.72487    0.01040    1.000
    C31      C        0.62572    0.76630    0.98390    1.000
    H25      H        0.65150    0.78770    0.96980    1.000
    C32      C        0.57409    0.77770    0.97710    1.000
    H26      H        0.56470    0.80510    0.95550    1.000
    C33      C        0.53620    0.75020    0.00090    1.000
    C34      C        0.55203    0.71000    0.03040    1.000
    H27      H        0.52760    0.69230    0.05050    1.000
    C35      C        0.60307    0.69500    0.03150    1.000
    H28      H        0.61270    0.66360    0.04700    1.000
    N8       N        0.78080    0.62130    0.02410    1.000
    C36      C        0.74140    0.60770    0.99520    1.000
    H29      H        0.72100    0.63340    0.97960    1.000
    C37      C        0.73000    0.55635    0.98770    1.000
    H30      H        0.69980    0.54720    0.96980    1.000
    C38      C        0.48200    0.76190    0.99420    1.000
    C39      C        0.46550    0.80290    0.96590    1.000
    H31      H        0.48990    0.82770    0.95500    1.000
    C40      C        0.80900    0.58560    0.04690    1.000
    H32      H        0.83310    0.59520    0.07190    1.000
    N9       N        0.37730    0.23504    0.13050    1.000
    C41      C        0.39043    0.27670    0.15630    1.000
    H33      H        0.36510    0.30040    0.16730    1.000
    C42      C        0.44181    0.28460    0.16650    1.000
    H34      H        0.45190    0.31590    0.18200    1.000
    C43      C        0.47900    0.24890    0.15510    1.000
    C44      C        0.46260    0.20680    0.12900    1.000
    H35      H        0.48730    0.18340    0.11590    1.000
    C45      C        0.41090    0.19730    0.12140    1.000
    H36      H        0.39940    0.16470    0.10980    1.000
    N10      N        0.73101    0.86440    0.02710    1.000
    C46      C        0.77610    0.87764    0.00680    1.000
    H37      H        0.80180    0.85250    0.00040    1.000
    C47      C        0.78450    0.92878    0.99530    1.000
    H38      H        0.81480    0.93810    0.97760    1.000
    C48      C        0.03320    0.75010    0.99110    1.000
    C49      C        0.04950    0.70380    0.97200    1.000
    H39      H        0.02490    0.67790    0.96450    1.000
    C50      C        0.69430    0.89890    0.03650    1.000
    H40      H        0.66190    0.88810    0.04900    1.000
    N11      N        0.13330    0.28160    0.14870    1.000
    C51      C        0.12208    0.24480    0.18170    1.000
    H41      H        0.14890    0.22740    0.19880    1.000
    C52      C        0.07148    0.23190    0.19080    1.000
    H42      H        0.06390    0.20560    0.21430    1.000
    C53      C        0.03180    0.25640    0.16640    1.000
    C54      C        0.04527    0.29500    0.13370    1.000
    H43      H        0.01910    0.31500    0.11820    1.000
    C55      C        0.09630    0.30500    0.12290    1.000
    H44      H        0.10500    0.32860    0.09710    1.000
    N12      N        0.71761    0.61480    0.13260    1.000
    C56      C        0.75930    0.60310    0.15930    1.000
    H45      H        0.78470    0.62860    0.16570    1.000
    C57      C        0.76570    0.55400    0.17760    1.000
    H46      H        0.79020    0.54790    0.20320    1.000
    C58      C        0.73700    0.51370    0.15960    1.000
    C59      C        0.69420    0.52743    0.13240    1.000
    H47      H        0.67100    0.50150    0.12180    1.000
    C60      C        0.68440    0.57800    0.12020    1.000
    H48      H        0.65370    0.58660    0.10290    1.000
    La2      La       0.24894    0.25927    0.08273    1.000
    O13      O        0.21060    0.69220    0.19040    1.000
    O14      O        0.28200    0.83130    0.20270    1.000
    O15      O        0.17200    0.79660    0.19880    1.000
    O16      O        0.31460    0.72380    0.20350    1.000
    O17      O        0.17220    0.22080    0.04550    1.000
    O18      O        0.22060    0.19350    0.14060    1.000
    O19      O        0.31120    0.28730    0.01890    1.000
    O20      O        0.20770    0.32810    0.02760    1.000
    O21      O        0.67400    0.76990    0.12830    1.000
    O22      O        0.27910    0.18560    0.03560    1.000
    O23      O        0.81600    0.70320    0.14110    1.000
    O24      O        0.29210    0.33880    0.11830    1.000
    N13      N        0.22520    0.64331    0.18792    1.000
    C61      C        0.26165    0.63248    0.15478    1.000
    H49      H        0.27860    0.65970    0.13770    1.000
    C62      C        0.27519    0.58223    0.14499    1.000
    H50      H        0.30130    0.57520    0.12110    1.000
    C63      C        0.25162    0.54220    0.16915    1.000
    C64      C        0.21390    0.55512    0.20310    1.000
    H51      H        0.19630    0.52860    0.22050    1.000
    C65      C        0.20110    0.60571    0.21233    1.000
    H52      H        0.17520    0.61370    0.23610    1.000
    N14      N        0.27480    0.88260    0.19890    1.000
    C66      C        0.30660    0.91795    0.21730    1.000
    H53      H        0.33350    0.90810    0.23930    1.000
    C67      C        0.30040    0.96900    0.20430    1.000
    H54      H        0.32540    0.99340    0.21470    1.000
    C68      C        0.25870    0.98520    0.17680    1.000
    C69      C        0.22540    0.94725    0.16180    1.000
    H55      H        0.19340    0.95660    0.14720    1.000
    C70      C        0.23720    0.89564    0.16730    1.000
    H56      H        0.21890    0.87010    0.14920    1.000
    N15      N        0.12449    0.78583    0.18930    1.000
    C71      C        0.11307    0.74520    0.16100    1.000
    H57      H        0.13970    0.72380    0.14820    1.000
    C72      C        0.06217    0.73440    0.15030    1.000
    H58      H        0.05420    0.70970    0.12530    1.000
    C73      C        0.02270    0.75890    0.17510    1.000
    C74      C        0.03615    0.80000    0.20470    1.000
    H59      H        0.01020    0.81910    0.22140    1.000
    C75      C        0.08722    0.81370    0.21010    1.000
    H60      H        0.09590    0.84340    0.22900    1.000
    N16      N        0.36460    0.73320    0.18850    1.000
    C76      C        0.39844    0.69960    0.20680    1.000
    H61      H        0.38730    0.67190    0.22730    1.000
    C77      C        0.45007    0.70560    0.19560    1.000
    H62      H        0.47460    0.68310    0.21030    1.000
    C78      C        0.46650    0.74340    0.16350    1.000
    C79      C        0.43003    0.77740    0.14730    1.000
    H63      H        0.44050    0.80670    0.12870    1.000
    C80      C        0.37860    0.77020    0.15710    1.000
    H64      H        0.35340    0.79130    0.14160    1.000
    N17      N        0.12462    0.22850    0.02760    1.000
    C81      C        0.11061    0.26780    0.99880    1.000
    H65      H        0.13490    0.29320    0.98900    1.000
    C82      C        0.05974    0.27080    0.98330    1.000
    H66      H        0.05100    0.29240    0.95600    1.000
    C83      C        0.02170    0.24310    0.00710    1.000
    C84      C        0.03813    0.20550    0.03980    1.000
    H67      H        0.01360    0.18300    0.05450    1.000
    C85      C        0.08956    0.19990    0.05130    1.000
    H68      H        0.10000    0.17590    0.07610    1.000
    N18      N        0.23282    0.14330    0.14980    1.000
    C86      C        0.19880    0.10921    0.13280    1.000
    H69      H        0.16850    0.12080    0.11630    1.000
    C87      C        0.20720    0.05710    0.13900    1.000
    H70      H        0.18450    0.03330    0.12350    1.000
    C88      C        0.24760    0.03900    0.16720    1.000
    C89      C        0.28390    0.07557    0.17960    1.000
    H71      H        0.31710    0.06490    0.19010    1.000
    C90      C        0.27280    0.12750    0.17700    1.000
    H72      H        0.29350    0.15170    0.19450    1.000
    N19      N        0.36140    0.27513    0.01040    1.000
    C91      C        0.37428    0.23370    0.98390    1.000
    H73      H        0.34850    0.21230    0.96980    1.000
    C92      C        0.42591    0.22230    0.97710    1.000
    H74      H        0.43530    0.19490    0.95550    1.000
    C93      C        0.46380    0.24980    0.00090    1.000
    C94      C        0.44797    0.29000    0.03040    1.000
    H75      H        0.47240    0.30770    0.05050    1.000
    C95      C        0.39693    0.30500    0.03150    1.000
    H76      H        0.38730    0.33640    0.04700    1.000
    N20      N        0.21920    0.37870    0.02410    1.000
    C96      C        0.25860    0.39230    0.99520    1.000
    H77      H        0.27900    0.36660    0.97960    1.000
    C97      C        0.27000    0.44365    0.98770    1.000
    H78      H        0.30020    0.45280    0.96980    1.000
    C98      C        0.51800    0.23810    0.99420    1.000
    C99      C        0.53450    0.19710    0.96590    1.000
    H79      H        0.51010    0.17230    0.95500    1.000
    C100     C        0.19100    0.41440    0.04690    1.000
    H80      H        0.16690    0.40480    0.07190    1.000
    N21      N        0.62270    0.76496    0.13050    1.000
    C101     C        0.60957    0.72330    0.15630    1.000
    H81      H        0.63490    0.69960    0.16730    1.000
    C102     C        0.55819    0.71540    0.16650    1.000
    H82      H        0.54810    0.68410    0.18200    1.000
    C103     C        0.52100    0.75110    0.15510    1.000
    C104     C        0.53740    0.79320    0.12900    1.000
    H83      H        0.51270    0.81660    0.11590    1.000
    C105     C        0.58910    0.80270    0.12140    1.000
    H84      H        0.60060    0.83530    0.10980    1.000
    N22      N        0.26899    0.13560    0.02710    1.000
    C106     C        0.22390    0.12236    0.00680    1.000
    H85      H        0.19820    0.14750    0.00040    1.000
    C107     C        0.21550    0.07122    0.99530    1.000
    H86      H        0.18520    0.06190    0.97760    1.000
    C108     C        0.96680    0.24990    0.99110    1.000
    C109     C        0.95050    0.29620    0.97200    1.000
    H87      H        0.97510    0.32210    0.96450    1.000
    C110     C        0.30570    0.10110    0.03650    1.000
    H88      H        0.33810    0.11190    0.04900    1.000
    N23      N        0.86670    0.71840    0.14870    1.000
    C111     C        0.87792    0.75520    0.18170    1.000
    H89      H        0.85110    0.77260    0.19880    1.000
    C112     C        0.92852    0.76810    0.19080    1.000
    H90      H        0.93610    0.79440    0.21430    1.000
    C113     C        0.96820    0.74360    0.16640    1.000
    C114     C        0.95473    0.70500    0.13370    1.000
    H91      H        0.98090    0.68500    0.11820    1.000
    C115     C        0.90370    0.69500    0.12290    1.000
    H92      H        0.89500    0.67140    0.09710    1.000
    N24      N        0.28239    0.38520    0.13260    1.000
    C116     C        0.24070    0.39690    0.15930    1.000
    H93      H        0.21530    0.37140    0.16570    1.000
    C117     C        0.23430    0.44600    0.17760    1.000
    H94      H        0.20980    0.45210    0.20320    1.000
    C118     C        0.26300    0.48630    0.15960    1.000
    C119     C        0.30580    0.47257    0.13240    1.000
    H95      H        0.32900    0.49850    0.12180    1.000
    C120     C        0.31560    0.42200    0.12020    1.000
    H96      H        0.34630    0.41340    0.10290    1.000
    La3      La       0.74073    0.24894    0.91727    1.000
    O25      O        0.30780    0.21060    0.80960    1.000
    O26      O        0.16870    0.28200    0.79730    1.000
    O27      O        0.20340    0.17200    0.80120    1.000
    O28      O        0.27620    0.31460    0.79650    1.000
    O29      O        0.77920    0.17220    0.95450    1.000
    O30      O        0.80650    0.22060    0.85940    1.000
    O31      O        0.71270    0.31120    0.98110    1.000
    O32      O        0.67190    0.20770    0.97240    1.000
    O33      O        0.23010    0.67400    0.87170    1.000
    O34      O        0.81440    0.27910    0.96440    1.000
    O35      O        0.29680    0.81600    0.85890    1.000
    O36      O        0.66120    0.29210    0.88170    1.000
    N25      N        0.35669    0.22520    0.81208    1.000
    C121     C        0.36752    0.26165    0.84522    1.000
    H97      H        0.34030    0.27860    0.86230    1.000
    C122     C        0.41777    0.27519    0.85501    1.000
    H98      H        0.42480    0.30130    0.87890    1.000
    C123     C        0.45780    0.25162    0.83085    1.000
    C124     C        0.44488    0.21390    0.79690    1.000
    H99      H        0.47140    0.19630    0.77950    1.000
    C125     C        0.39429    0.20110    0.78767    1.000
    H100     H        0.38630    0.17520    0.76390    1.000
    N26      N        0.11740    0.27480    0.80110    1.000
    C126     C        0.08205    0.30660    0.78270    1.000
    H101     H        0.09190    0.33350    0.76070    1.000
    C127     C        0.03100    0.30040    0.79570    1.000
    H102     H        0.00660    0.32540    0.78530    1.000
    C128     C        0.01480    0.25870    0.82320    1.000
    C129     C        0.05275    0.22540    0.83820    1.000
    H103     H        0.04340    0.19340    0.85280    1.000
    C130     C        0.10436    0.23720    0.83270    1.000
    H104     H        0.12990    0.21890    0.85080    1.000
    N27      N        0.21417    0.12449    0.81070    1.000
    C131     C        0.25480    0.11307    0.83900    1.000
    H105     H        0.27620    0.13970    0.85180    1.000
    C132     C        0.26560    0.06217    0.84970    1.000
    H106     H        0.29030    0.05420    0.87470    1.000
    C133     C        0.24110    0.02270    0.82490    1.000
    C134     C        0.20000    0.03615    0.79530    1.000
    H107     H        0.18090    0.01020    0.77860    1.000
    C135     C        0.18630    0.08722    0.78990    1.000
    H108     H        0.15660    0.09590    0.77100    1.000
    N28      N        0.26680    0.36460    0.81150    1.000
    C136     C        0.30040    0.39844    0.79320    1.000
    H109     H        0.32810    0.38730    0.77270    1.000
    C137     C        0.29440    0.45007    0.80440    1.000
    H110     H        0.31690    0.47460    0.78970    1.000
    C138     C        0.25660    0.46650    0.83650    1.000
    C139     C        0.22260    0.43003    0.85270    1.000
    H111     H        0.19330    0.44050    0.87130    1.000
    C140     C        0.22980    0.37860    0.84290    1.000
    H112     H        0.20870    0.35340    0.85840    1.000
    N29      N        0.77150    0.12462    0.97240    1.000
    C141     C        0.73220    0.11061    0.00120    1.000
    H113     H        0.70680    0.13490    0.01100    1.000
    C142     C        0.72920    0.05974    0.01670    1.000
    H114     H        0.70760    0.05100    0.04400    1.000
    C143     C        0.75690    0.02170    0.99290    1.000
    C144     C        0.79450    0.03813    0.96020    1.000
    H115     H        0.81700    0.01360    0.94550    1.000
    C145     C        0.80010    0.08956    0.94870    1.000
    H116     H        0.82410    0.10000    0.92390    1.000
    N30      N        0.85670    0.23282    0.85020    1.000
    C146     C        0.89079    0.19880    0.86720    1.000
    H117     H        0.87920    0.16850    0.88370    1.000
    C147     C        0.94290    0.20720    0.86100    1.000
    H118     H        0.96670    0.18450    0.87650    1.000
    C148     C        0.96100    0.24760    0.83280    1.000
    C149     C        0.92443    0.28390    0.82040    1.000
    H119     H        0.93510    0.31710    0.80990    1.000
    C150     C        0.87250    0.27280    0.82300    1.000
    H120     H        0.84830    0.29350    0.80550    1.000
    N31      N        0.72487    0.36140    0.98960    1.000
    C151     C        0.76630    0.37428    0.01610    1.000
    H121     H        0.78770    0.34850    0.03020    1.000
    C152     C        0.77770    0.42591    0.02290    1.000
    H122     H        0.80510    0.43530    0.04450    1.000
    C153     C        0.75020    0.46380    0.99910    1.000
    C154     C        0.71000    0.44797    0.96960    1.000
    H123     H        0.69230    0.47240    0.94950    1.000
    C155     C        0.69500    0.39693    0.96850    1.000
    H124     H        0.66360    0.38730    0.95300    1.000
    N32      N        0.62130    0.21920    0.97590    1.000
    C156     C        0.60770    0.25860    0.00480    1.000
    H125     H        0.63340    0.27900    0.02040    1.000
    C157     C        0.55635    0.27000    0.01230    1.000
    H126     H        0.54720    0.30020    0.03020    1.000
    C158     C        0.76190    0.51800    0.00580    1.000
    C159     C        0.80290    0.53450    0.03410    1.000
    H127     H        0.82770    0.51010    0.04500    1.000
    C160     C        0.58560    0.19100    0.95310    1.000
    H128     H        0.59520    0.16690    0.92810    1.000
    N33      N        0.23504    0.62270    0.86950    1.000
    C161     C        0.27670    0.60957    0.84370    1.000
    H129     H        0.30040    0.63490    0.83270    1.000
    C162     C        0.28460    0.55819    0.83350    1.000
    H130     H        0.31590    0.54810    0.81800    1.000
    C163     C        0.24890    0.52100    0.84490    1.000
    C164     C        0.20680    0.53740    0.87100    1.000
    H131     H        0.18340    0.51270    0.88410    1.000
    C165     C        0.19730    0.58910    0.87860    1.000
    H132     H        0.16470    0.60060    0.89020    1.000
    N34      N        0.86440    0.26899    0.97290    1.000
    C166     C        0.87764    0.22390    0.99320    1.000
    H133     H        0.85250    0.19820    0.99960    1.000
    C167     C        0.92878    0.21550    0.00470    1.000
    H134     H        0.93810    0.18520    0.02240    1.000
    C168     C        0.75010    0.96680    0.00890    1.000
    C169     C        0.70380    0.95050    0.02800    1.000
    H135     H        0.67790    0.97510    0.03550    1.000
    C170     C        0.89890    0.30570    0.96350    1.000
    H136     H        0.88810    0.33810    0.95100    1.000
    N35      N        0.28160    0.86670    0.85130    1.000
    C171     C        0.24480    0.87792    0.81830    1.000
    H137     H        0.22740    0.85110    0.80120    1.000
    C172     C        0.23190    0.92852    0.80920    1.000
    H138     H        0.20560    0.93610    0.78570    1.000
    C173     C        0.25640    0.96820    0.83360    1.000
    C174     C        0.29500    0.95473    0.86630    1.000
    H139     H        0.31500    0.98090    0.88180    1.000
    C175     C        0.30500    0.90370    0.87710    1.000
    H140     H        0.32860    0.89500    0.90290    1.000
    N36      N        0.61480    0.28239    0.86740    1.000
    C176     C        0.60310    0.24070    0.84070    1.000
    H141     H        0.62860    0.21530    0.83430    1.000
    C177     C        0.55400    0.23430    0.82240    1.000
    H142     H        0.54790    0.20980    0.79680    1.000
    C178     C        0.51370    0.26300    0.84040    1.000
    C179     C        0.52743    0.30580    0.86760    1.000
    H143     H        0.50150    0.32900    0.87820    1.000
    C180     C        0.57800    0.31560    0.87980    1.000
    H144     H        0.58660    0.34630    0.89710    1.000
    La4      La       0.25927    0.75106    0.91727    1.000
    O37      O        0.69220    0.78940    0.80960    1.000
    O38      O        0.83130    0.71800    0.79730    1.000
    O39      O        0.79660    0.82800    0.80120    1.000
    O40      O        0.72380    0.68540    0.79650    1.000
    O41      O        0.22080    0.82780    0.95450    1.000
    O42      O        0.19350    0.77940    0.85940    1.000
    O43      O        0.28730    0.68880    0.98110    1.000
    O44      O        0.32810    0.79230    0.97240    1.000
    O45      O        0.76990    0.32600    0.87170    1.000
    O46      O        0.18560    0.72090    0.96440    1.000
    O47      O        0.70320    0.18400    0.85890    1.000
    O48      O        0.33880    0.70790    0.88170    1.000
    N37      N        0.64331    0.77480    0.81208    1.000
    C181     C        0.63248    0.73835    0.84522    1.000
    H145     H        0.65970    0.72140    0.86230    1.000
    C182     C        0.58223    0.72481    0.85501    1.000
    H146     H        0.57520    0.69870    0.87890    1.000
    C183     C        0.54220    0.74838    0.83085    1.000
    C184     C        0.55512    0.78610    0.79690    1.000
    H147     H        0.52860    0.80370    0.77950    1.000
    C185     C        0.60571    0.79890    0.78767    1.000
    H148     H        0.61370    0.82480    0.76390    1.000
    N38      N        0.88260    0.72520    0.80110    1.000
    C186     C        0.91795    0.69340    0.78270    1.000
    H149     H        0.90810    0.66650    0.76070    1.000
    C187     C        0.96900    0.69960    0.79570    1.000
    H150     H        0.99340    0.67460    0.78530    1.000
    C188     C        0.98520    0.74130    0.82320    1.000
    C189     C        0.94725    0.77460    0.83820    1.000
    H151     H        0.95660    0.80660    0.85280    1.000
    C190     C        0.89564    0.76280    0.83270    1.000
    H152     H        0.87010    0.78110    0.85080    1.000
    N39      N        0.78583    0.87551    0.81070    1.000
    C191     C        0.74520    0.88693    0.83900    1.000
    H153     H        0.72380    0.86030    0.85180    1.000
    C192     C        0.73440    0.93783    0.84970    1.000
    H154     H        0.70970    0.94580    0.87470    1.000
    C193     C        0.75890    0.97730    0.82490    1.000
    C194     C        0.80000    0.96385    0.79530    1.000
    H155     H        0.81910    0.98980    0.77860    1.000
    C195     C        0.81370    0.91278    0.78990    1.000
    H156     H        0.84340    0.90410    0.77100    1.000
    N40      N        0.73320    0.63540    0.81150    1.000
    C196     C        0.69960    0.60156    0.79320    1.000
    H157     H        0.67190    0.61270    0.77270    1.000
    C197     C        0.70560    0.54993    0.80440    1.000
    H158     H        0.68310    0.52540    0.78970    1.000
    C198     C        0.74340    0.53350    0.83650    1.000
    C199     C        0.77740    0.56997    0.85270    1.000
    H159     H        0.80670    0.55950    0.87130    1.000
    C200     C        0.77020    0.62140    0.84290    1.000
    H160     H        0.79130    0.64660    0.85840    1.000
    N41      N        0.22850    0.87538    0.97240    1.000
    C201     C        0.26780    0.88939    0.00120    1.000
    H161     H        0.29320    0.86510    0.01100    1.000
    C202     C        0.27080    0.94026    0.01670    1.000
    H162     H        0.29240    0.94900    0.04400    1.000
    C203     C        0.24310    0.97830    0.99290    1.000
    C204     C        0.20550    0.96187    0.96020    1.000
    H163     H        0.18300    0.98640    0.94550    1.000
    C205     C        0.19990    0.91044    0.94870    1.000
    H164     H        0.17590    0.90000    0.92390    1.000
    N42      N        0.14330    0.76718    0.85020    1.000
    C206     C        0.10921    0.80120    0.86720    1.000
    H165     H        0.12080    0.83150    0.88370    1.000
    C207     C        0.05710    0.79280    0.86100    1.000
    H166     H        0.03330    0.81550    0.87650    1.000
    C208     C        0.03900    0.75240    0.83280    1.000
    C209     C        0.07557    0.71610    0.82040    1.000
    H167     H        0.06490    0.68290    0.80990    1.000
    C210     C        0.12750    0.72720    0.82300    1.000
    H168     H        0.15170    0.70650    0.80550    1.000
    N43      N        0.27513    0.63860    0.98960    1.000
    C211     C        0.23370    0.62572    0.01610    1.000
    H169     H        0.21230    0.65150    0.03020    1.000
    C212     C        0.22230    0.57409    0.02290    1.000
    H170     H        0.19490    0.56470    0.04450    1.000
    C213     C        0.24980    0.53620    0.99910    1.000
    C214     C        0.29000    0.55203    0.96960    1.000
    H171     H        0.30770    0.52760    0.94950    1.000
    C215     C        0.30500    0.60307    0.96850    1.000
    H172     H        0.33640    0.61270    0.95300    1.000
    N44      N        0.37870    0.78080    0.97590    1.000
    C216     C        0.39230    0.74140    0.00480    1.000
    H173     H        0.36660    0.72100    0.02040    1.000
    C217     C        0.44365    0.73000    0.01230    1.000
    H174     H        0.45280    0.69980    0.03020    1.000
    C218     C        0.23810    0.48200    0.00580    1.000
    C219     C        0.19710    0.46550    0.03410    1.000
    H175     H        0.17230    0.48990    0.04500    1.000
    C220     C        0.41440    0.80900    0.95310    1.000
    H176     H        0.40480    0.83310    0.92810    1.000
    N45      N        0.76496    0.37730    0.86950    1.000
    C221     C        0.72330    0.39043    0.84370    1.000
    H177     H        0.69960    0.36510    0.83270    1.000
    C222     C        0.71540    0.44181    0.83350    1.000
    H178     H        0.68410    0.45190    0.81800    1.000
    C223     C        0.75110    0.47900    0.84490    1.000
    C224     C        0.79320    0.46260    0.87100    1.000
    H179     H        0.81660    0.48730    0.88410    1.000
    C225     C        0.80270    0.41090    0.87860    1.000
    H180     H        0.83530    0.39940    0.89020    1.000
    N46      N        0.13560    0.73101    0.97290    1.000
    C226     C        0.12236    0.77610    0.99320    1.000
    H181     H        0.14750    0.80180    0.99960    1.000
    C227     C        0.07122    0.78450    0.00470    1.000
    H182     H        0.06190    0.81480    0.02240    1.000
    C228     C        0.24990    0.03320    0.00890    1.000
    C229     C        0.29620    0.04950    0.02800    1.000
    H183     H        0.32210    0.02490    0.03550    1.000
    C230     C        0.10110    0.69430    0.96350    1.000
    H184     H        0.11190    0.66190    0.95100    1.000
    N47      N        0.71840    0.13330    0.85130    1.000
    C231     C        0.75520    0.12208    0.81830    1.000
    H185     H        0.77260    0.14890    0.80120    1.000
    C232     C        0.76810    0.07148    0.80920    1.000
    H186     H        0.79440    0.06390    0.78570    1.000
    C233     C        0.74360    0.03180    0.83360    1.000
    C234     C        0.70500    0.04527    0.86630    1.000
    H187     H        0.68500    0.01910    0.88180    1.000
    C235     C        0.69500    0.09630    0.87710    1.000
    H188     H        0.67140    0.10500    0.90290    1.000
    N48      N        0.38520    0.71761    0.86740    1.000
    C236     C        0.39690    0.75930    0.84070    1.000
    H189     H        0.37140    0.78470    0.83430    1.000
    C237     C        0.44600    0.76570    0.82240    1.000
    H190     H        0.45210    0.79020    0.79680    1.000
    C238     C        0.48630    0.73700    0.84040    1.000
    C239     C        0.47257    0.69420    0.86760    1.000
    H191     H        0.49850    0.67100    0.87820    1.000
    C240     C        0.42200    0.68440    0.87980    1.000
    H192     H        0.41340    0.65370    0.89710    1.000
    La5      La       0.75106    0.25927    0.58273    1.000
    O49      O        0.78940    0.69220    0.69040    1.000
    O50      O        0.71800    0.83130    0.70270    1.000
    O51      O        0.82800    0.79660    0.69880    1.000
    O52      O        0.68540    0.72380    0.70350    1.000
    O53      O        0.82780    0.22080    0.54550    1.000
    O54      O        0.77940    0.19350    0.64060    1.000
    O55      O        0.68880    0.28730    0.51890    1.000
    O56      O        0.79230    0.32810    0.52760    1.000
    O57      O        0.32600    0.76990    0.62830    1.000
    O58      O        0.72090    0.18560    0.53560    1.000
    O59      O        0.18400    0.70320    0.64110    1.000
    O60      O        0.70790    0.33880    0.61830    1.000
    N49      N        0.77480    0.64331    0.68792    1.000
    C241     C        0.73835    0.63248    0.65478    1.000
    H193     H        0.72140    0.65970    0.63770    1.000
    C242     C        0.72481    0.58223    0.64499    1.000
    H194     H        0.69870    0.57520    0.62110    1.000
    C243     C        0.74838    0.54220    0.66915    1.000
    C244     C        0.78610    0.55512    0.70310    1.000
    H195     H        0.80370    0.52860    0.72050    1.000
    C245     C        0.79890    0.60571    0.71233    1.000
    H196     H        0.82480    0.61370    0.73610    1.000
    N50      N        0.72520    0.88260    0.69890    1.000
    C246     C        0.69340    0.91795    0.71730    1.000
    H197     H        0.66650    0.90810    0.73930    1.000
    C247     C        0.69960    0.96900    0.70430    1.000
    H198     H        0.67460    0.99340    0.71470    1.000
    C248     C        0.74130    0.98520    0.67680    1.000
    C249     C        0.77460    0.94725    0.66180    1.000
    H199     H        0.80660    0.95660    0.64720    1.000
    C250     C        0.76280    0.89564    0.66730    1.000
    H200     H        0.78110    0.87010    0.64920    1.000
    N51      N        0.87551    0.78583    0.68930    1.000
    C251     C        0.88693    0.74520    0.66100    1.000
    H201     H        0.86030    0.72380    0.64820    1.000
    C252     C        0.93783    0.73440    0.65030    1.000
    H202     H        0.94580    0.70970    0.62530    1.000
    C253     C        0.97730    0.75890    0.67510    1.000
    C254     C        0.96385    0.80000    0.70470    1.000
    H203     H        0.98980    0.81910    0.72140    1.000
    C255     C        0.91278    0.81370    0.71010    1.000
    H204     H        0.90410    0.84340    0.72900    1.000
    N52      N        0.63540    0.73320    0.68850    1.000
    C256     C        0.60156    0.69960    0.70680    1.000
    H205     H        0.61270    0.67190    0.72730    1.000
    C257     C        0.54993    0.70560    0.69560    1.000
    H206     H        0.52540    0.68310    0.71030    1.000
    C258     C        0.53350    0.74340    0.66350    1.000
    C259     C        0.56997    0.77740    0.64730    1.000
    H207     H        0.55950    0.80670    0.62870    1.000
    C260     C        0.62140    0.77020    0.65710    1.000
    H208     H        0.64660    0.79130    0.64160    1.000
    N53      N        0.87538    0.22850    0.52760    1.000
    C261     C        0.88939    0.26780    0.49880    1.000
    H209     H        0.86510    0.29320    0.48900    1.000
    C262     C        0.94026    0.27080    0.48330    1.000
    H210     H        0.94900    0.29240    0.45600    1.000
    C263     C        0.97830    0.24310    0.50710    1.000
    C264     C        0.96187    0.20550    0.53980    1.000
    H211     H        0.98640    0.18300    0.55450    1.000
    C265     C        0.91044    0.19990    0.55130    1.000
    H212     H        0.90000    0.17590    0.57610    1.000
    N54      N        0.76718    0.14330    0.64980    1.000
    C266     C        0.80120    0.10921    0.63280    1.000
    H213     H        0.83150    0.12080    0.61630    1.000
    C267     C        0.79280    0.05710    0.63900    1.000
    H214     H        0.81550    0.03330    0.62350    1.000
    C268     C        0.75240    0.03900    0.66720    1.000
    C269     C        0.71610    0.07557    0.67960    1.000
    H215     H        0.68290    0.06490    0.69010    1.000
    C270     C        0.72720    0.12750    0.67700    1.000
    H216     H        0.70650    0.15170    0.69450    1.000
    N55      N        0.63860    0.27513    0.51040    1.000
    C271     C        0.62572    0.23370    0.48390    1.000
    H217     H        0.65150    0.21230    0.46980    1.000
    C272     C        0.57409    0.22230    0.47710    1.000
    H218     H        0.56470    0.19490    0.45550    1.000
    C273     C        0.53620    0.24980    0.50090    1.000
    C274     C        0.55203    0.29000    0.53040    1.000
    H219     H        0.52760    0.30770    0.55050    1.000
    C275     C        0.60307    0.30500    0.53150    1.000
    H220     H        0.61270    0.33640    0.54700    1.000
    N56      N        0.78080    0.37870    0.52410    1.000
    C276     C        0.74140    0.39230    0.49520    1.000
    H221     H        0.72100    0.36660    0.47960    1.000
    C277     C        0.73000    0.44365    0.48770    1.000
    H222     H        0.69980    0.45280    0.46980    1.000
    C278     C        0.48200    0.23810    0.49420    1.000
    C279     C        0.46550    0.19710    0.46590    1.000
    H223     H        0.48990    0.17230    0.45500    1.000
    C280     C        0.80900    0.41440    0.54690    1.000
    H224     H        0.83310    0.40480    0.57190    1.000
    N57      N        0.37730    0.76496    0.63050    1.000
    C281     C        0.39043    0.72330    0.65630    1.000
    H225     H        0.36510    0.69960    0.66730    1.000
    C282     C        0.44181    0.71540    0.66650    1.000
    H226     H        0.45190    0.68410    0.68200    1.000
    C283     C        0.47900    0.75110    0.65510    1.000
    C284     C        0.46260    0.79320    0.62900    1.000
    H227     H        0.48730    0.81660    0.61590    1.000
    C285     C        0.41090    0.80270    0.62140    1.000
    H228     H        0.39940    0.83530    0.60980    1.000
    N58      N        0.73101    0.13560    0.52710    1.000
    C286     C        0.77610    0.12236    0.50680    1.000
    H229     H        0.80180    0.14750    0.50040    1.000
    C287     C        0.78450    0.07122    0.49530    1.000
    H230     H        0.81480    0.06190    0.47760    1.000
    C288     C        0.03320    0.24990    0.49110    1.000
    C289     C        0.04950    0.29620    0.47200    1.000
    H231     H        0.02490    0.32210    0.46450    1.000
    C290     C        0.69430    0.10110    0.53650    1.000
    H232     H        0.66190    0.11190    0.54900    1.000
    N59      N        0.13330    0.71840    0.64870    1.000
    C291     C        0.12208    0.75520    0.68170    1.000
    H233     H        0.14890    0.77260    0.69880    1.000
    C292     C        0.07148    0.76810    0.69080    1.000
    H234     H        0.06390    0.79440    0.71430    1.000
    C293     C        0.03180    0.74360    0.66640    1.000
    C294     C        0.04527    0.70500    0.63370    1.000
    H235     H        0.01910    0.68500    0.61820    1.000
    C295     C        0.09630    0.69500    0.62290    1.000
    H236     H        0.10500    0.67140    0.59710    1.000
    N60      N        0.71761    0.38520    0.63260    1.000
    C296     C        0.75930    0.39690    0.65930    1.000
    H237     H        0.78470    0.37140    0.66570    1.000
    C297     C        0.76570    0.44600    0.67760    1.000
    H238     H        0.79020    0.45210    0.70320    1.000
    C298     C        0.73700    0.48630    0.65960    1.000
    C299     C        0.69420    0.47257    0.63240    1.000
    H239     H        0.67100    0.49850    0.62180    1.000
    C300     C        0.68440    0.42200    0.62020    1.000
    H240     H        0.65370    0.41340    0.60290    1.000
    La6      La       0.24894    0.74073    0.58273    1.000
    O61      O        0.21060    0.30780    0.69040    1.000
    O62      O        0.28200    0.16870    0.70270    1.000
    O63      O        0.17200    0.20340    0.69880    1.000
    O64      O        0.31460    0.27620    0.70350    1.000
    O65      O        0.17220    0.77920    0.54550    1.000
    O66      O        0.22060    0.80650    0.64060    1.000
    O67      O        0.31120    0.71270    0.51890    1.000
    O68      O        0.20770    0.67190    0.52760    1.000
    O69      O        0.67400    0.23010    0.62830    1.000
    O70      O        0.27910    0.81440    0.53560    1.000
    O71      O        0.81600    0.29680    0.64110    1.000
    O72      O        0.29210    0.66120    0.61830    1.000
    N61      N        0.22520    0.35669    0.68792    1.000
    C301     C        0.26165    0.36752    0.65478    1.000
    H241     H        0.27860    0.34030    0.63770    1.000
    C302     C        0.27519    0.41777    0.64499    1.000
    H242     H        0.30130    0.42480    0.62110    1.000
    C303     C        0.25162    0.45780    0.66915    1.000
    C304     C        0.21390    0.44488    0.70310    1.000
    H243     H        0.19630    0.47140    0.72050    1.000
    C305     C        0.20110    0.39429    0.71233    1.000
    H244     H        0.17520    0.38630    0.73610    1.000
    N62      N        0.27480    0.11740    0.69890    1.000
    C306     C        0.30660    0.08205    0.71730    1.000
    H245     H        0.33350    0.09190    0.73930    1.000
    C307     C        0.30040    0.03100    0.70430    1.000
    H246     H        0.32540    0.00660    0.71470    1.000
    C308     C        0.25870    0.01480    0.67680    1.000
    C309     C        0.22540    0.05275    0.66180    1.000
    H247     H        0.19340    0.04340    0.64720    1.000
    C310     C        0.23720    0.10436    0.66730    1.000
    H248     H        0.21890    0.12990    0.64920    1.000
    N63      N        0.12449    0.21417    0.68930    1.000
    C311     C        0.11307    0.25480    0.66100    1.000
    H249     H        0.13970    0.27620    0.64820    1.000
    C312     C        0.06217    0.26560    0.65030    1.000
    H250     H        0.05420    0.29030    0.62530    1.000
    C313     C        0.02270    0.24110    0.67510    1.000
    C314     C        0.03615    0.20000    0.70470    1.000
    H251     H        0.01020    0.18090    0.72140    1.000
    C315     C        0.08722    0.18630    0.71010    1.000
    H252     H        0.09590    0.15660    0.72900    1.000
    N64      N        0.36460    0.26680    0.68850    1.000
    C316     C        0.39844    0.30040    0.70680    1.000
    H253     H        0.38730    0.32810    0.72730    1.000
    C317     C        0.45007    0.29440    0.69560    1.000
    H254     H        0.47460    0.31690    0.71030    1.000
    C318     C        0.46650    0.25660    0.66350    1.000
    C319     C        0.43003    0.22260    0.64730    1.000
    H255     H        0.44050    0.19330    0.62870    1.000
    C320     C        0.37860    0.22980    0.65710    1.000
    H256     H        0.35340    0.20870    0.64160    1.000
    N65      N        0.12462    0.77150    0.52760    1.000
    C321     C        0.11061    0.73220    0.49880    1.000
    H257     H        0.13490    0.70680    0.48900    1.000
    C322     C        0.05974    0.72920    0.48330    1.000
    H258     H        0.05100    0.70760    0.45600    1.000
    C323     C        0.02170    0.75690    0.50710    1.000
    C324     C        0.03813    0.79450    0.53980    1.000
    H259     H        0.01360    0.81700    0.55450    1.000
    C325     C        0.08956    0.80010    0.55130    1.000
    H260     H        0.10000    0.82410    0.57610    1.000
    N66      N        0.23282    0.85670    0.64980    1.000
    C326     C        0.19880    0.89079    0.63280    1.000
    H261     H        0.16850    0.87920    0.61630    1.000
    C327     C        0.20720    0.94290    0.63900    1.000
    H262     H        0.18450    0.96670    0.62350    1.000
    C328     C        0.24760    0.96100    0.66720    1.000
    C329     C        0.28390    0.92443    0.67960    1.000
    H263     H        0.31710    0.93510    0.69010    1.000
    C330     C        0.27280    0.87250    0.67700    1.000
    H264     H        0.29350    0.84830    0.69450    1.000
    N67      N        0.36140    0.72487    0.51040    1.000
    C331     C        0.37428    0.76630    0.48390    1.000
    H265     H        0.34850    0.78770    0.46980    1.000
    C332     C        0.42591    0.77770    0.47710    1.000
    H266     H        0.43530    0.80510    0.45550    1.000
    C333     C        0.46380    0.75020    0.50090    1.000
    C334     C        0.44797    0.71000    0.53040    1.000
    H267     H        0.47240    0.69230    0.55050    1.000
    C335     C        0.39693    0.69500    0.53150    1.000
    H268     H        0.38730    0.66360    0.54700    1.000
    N68      N        0.21920    0.62130    0.52410    1.000
    C336     C        0.25860    0.60770    0.49520    1.000
    H269     H        0.27900    0.63340    0.47960    1.000
    C337     C        0.27000    0.55635    0.48770    1.000
    H270     H        0.30020    0.54720    0.46980    1.000
    C338     C        0.51800    0.76190    0.49420    1.000
    C339     C        0.53450    0.80290    0.46590    1.000
    H271     H        0.51010    0.82770    0.45500    1.000
    C340     C        0.19100    0.58560    0.54690    1.000
    H272     H        0.16690    0.59520    0.57190    1.000
    N69      N        0.62270    0.23504    0.63050    1.000
    C341     C        0.60957    0.27670    0.65630    1.000
    H273     H        0.63490    0.30040    0.66730    1.000
    C342     C        0.55819    0.28460    0.66650    1.000
    H274     H        0.54810    0.31590    0.68200    1.000
    C343     C        0.52100    0.24890    0.65510    1.000
    C344     C        0.53740    0.20680    0.62900    1.000
    H275     H        0.51270    0.18340    0.61590    1.000
    C345     C        0.58910    0.19730    0.62140    1.000
    H276     H        0.60060    0.16470    0.60980    1.000
    N70      N        0.26899    0.86440    0.52710    1.000
    C346     C        0.22390    0.87764    0.50680    1.000
    H277     H        0.19820    0.85250    0.50040    1.000
    C347     C        0.21550    0.92878    0.49530    1.000
    H278     H        0.18520    0.93810    0.47760    1.000
    C348     C        0.96680    0.75010    0.49110    1.000
    C349     C        0.95050    0.70380    0.47200    1.000
    H279     H        0.97510    0.67790    0.46450    1.000
    C350     C        0.30570    0.89890    0.53650    1.000
    H280     H        0.33810    0.88810    0.54900    1.000
    N71      N        0.86670    0.28160    0.64870    1.000
    C351     C        0.87792    0.24480    0.68170    1.000
    H281     H        0.85110    0.22740    0.69880    1.000
    C352     C        0.92852    0.23190    0.69080    1.000
    H282     H        0.93610    0.20560    0.71430    1.000
    C353     C        0.96820    0.25640    0.66640    1.000
    C354     C        0.95473    0.29500    0.63370    1.000
    H283     H        0.98090    0.31500    0.61820    1.000
    C355     C        0.90370    0.30500    0.62290    1.000
    H284     H        0.89500    0.32860    0.59710    1.000
    N72      N        0.28239    0.61480    0.63260    1.000
    C356     C        0.24070    0.60310    0.65930    1.000
    H285     H        0.21530    0.62860    0.66570    1.000
    C357     C        0.23430    0.55400    0.67760    1.000
    H286     H        0.20980    0.54790    0.70320    1.000
    C358     C        0.26300    0.51370    0.65960    1.000
    C359     C        0.30580    0.52743    0.63240    1.000
    H287     H        0.32900    0.50150    0.62180    1.000
    C360     C        0.31560    0.57800    0.62020    1.000
    H288     H        0.34630    0.58660    0.60290    1.000
    La7      La       0.74073    0.75106    0.41727    1.000
    O73      O        0.30780    0.78940    0.30960    1.000
    O74      O        0.16870    0.71800    0.29730    1.000
    O75      O        0.20340    0.82800    0.30120    1.000
    O76      O        0.27620    0.68540    0.29650    1.000
    O77      O        0.77920    0.82780    0.45450    1.000
    O78      O        0.80650    0.77940    0.35940    1.000
    O79      O        0.71270    0.68880    0.48110    1.000
    O80      O        0.67190    0.79230    0.47240    1.000
    O81      O        0.23010    0.32600    0.37170    1.000
    O82      O        0.81440    0.72090    0.46440    1.000
    O83      O        0.29680    0.18400    0.35890    1.000
    O84      O        0.66120    0.70790    0.38170    1.000
    N73      N        0.35669    0.77480    0.31208    1.000
    C361     C        0.36752    0.73835    0.34522    1.000
    H289     H        0.34030    0.72140    0.36230    1.000
    C362     C        0.41777    0.72481    0.35501    1.000
    H290     H        0.42480    0.69870    0.37890    1.000
    C363     C        0.45780    0.74838    0.33085    1.000
    C364     C        0.44488    0.78610    0.29690    1.000
    H291     H        0.47140    0.80370    0.27950    1.000
    C365     C        0.39429    0.79890    0.28767    1.000
    H292     H        0.38630    0.82480    0.26390    1.000
    N74      N        0.11740    0.72520    0.30110    1.000
    C366     C        0.08205    0.69340    0.28270    1.000
    H293     H        0.09190    0.66650    0.26070    1.000
    C367     C        0.03100    0.69960    0.29570    1.000
    H294     H        0.00660    0.67460    0.28530    1.000
    C368     C        0.01480    0.74130    0.32320    1.000
    C369     C        0.05275    0.77460    0.33820    1.000
    H295     H        0.04340    0.80660    0.35280    1.000
    C370     C        0.10436    0.76280    0.33270    1.000
    H296     H        0.12990    0.78110    0.35080    1.000
    N75      N        0.21417    0.87551    0.31070    1.000
    C371     C        0.25480    0.88693    0.33900    1.000
    H297     H        0.27620    0.86030    0.35180    1.000
    C372     C        0.26560    0.93783    0.34970    1.000
    H298     H        0.29030    0.94580    0.37470    1.000
    C373     C        0.24110    0.97730    0.32490    1.000
    C374     C        0.20000    0.96385    0.29530    1.000
    H299     H        0.18090    0.98980    0.27860    1.000
    C375     C        0.18630    0.91278    0.28990    1.000
    H300     H        0.15660    0.90410    0.27100    1.000
    N76      N        0.26680    0.63540    0.31150    1.000
    C376     C        0.30040    0.60156    0.29320    1.000
    H301     H        0.32810    0.61270    0.27270    1.000
    C377     C        0.29440    0.54993    0.30440    1.000
    H302     H        0.31690    0.52540    0.28970    1.000
    C378     C        0.25660    0.53350    0.33650    1.000
    C379     C        0.22260    0.56997    0.35270    1.000
    H303     H        0.19330    0.55950    0.37130    1.000
    C380     C        0.22980    0.62140    0.34290    1.000
    H304     H        0.20870    0.64660    0.35840    1.000
    N77      N        0.77150    0.87538    0.47240    1.000
    C381     C        0.73220    0.88939    0.50120    1.000
    H305     H        0.70680    0.86510    0.51100    1.000
    C382     C        0.72920    0.94026    0.51670    1.000
    H306     H        0.70760    0.94900    0.54400    1.000
    C383     C        0.75690    0.97830    0.49290    1.000
    C384     C        0.79450    0.96187    0.46020    1.000
    H307     H        0.81700    0.98640    0.44550    1.000
    C385     C        0.80010    0.91044    0.44870    1.000
    H308     H        0.82410    0.90000    0.42390    1.000
    N78      N        0.85670    0.76718    0.35020    1.000
    C386     C        0.89079    0.80120    0.36720    1.000
    H309     H        0.87920    0.83150    0.38370    1.000
    C387     C        0.94290    0.79280    0.36100    1.000
    H310     H        0.96670    0.81550    0.37650    1.000
    C388     C        0.96100    0.75240    0.33280    1.000
    C389     C        0.92443    0.71610    0.32040    1.000
    H311     H        0.93510    0.68290    0.30990    1.000
    C390     C        0.87250    0.72720    0.32300    1.000
    H312     H        0.84830    0.70650    0.30550    1.000
    N79      N        0.72487    0.63860    0.48960    1.000
    C391     C        0.76630    0.62572    0.51610    1.000
    H313     H        0.78770    0.65150    0.53020    1.000
    C392     C        0.77770    0.57409    0.52290    1.000
    H314     H        0.80510    0.56470    0.54450    1.000
    C393     C        0.75020    0.53620    0.49910    1.000
    C394     C        0.71000    0.55203    0.46960    1.000
    H315     H        0.69230    0.52760    0.44950    1.000
    C395     C        0.69500    0.60307    0.46850    1.000
    H316     H        0.66360    0.61270    0.45300    1.000
    N80      N        0.62130    0.78080    0.47590    1.000
    C396     C        0.60770    0.74140    0.50480    1.000
    H317     H        0.63340    0.72100    0.52040    1.000
    C397     C        0.55635    0.73000    0.51230    1.000
    H318     H        0.54720    0.69980    0.53020    1.000
    C398     C        0.76190    0.48200    0.50580    1.000
    C399     C        0.80290    0.46550    0.53410    1.000
    H319     H        0.82770    0.48990    0.54500    1.000
    C400     C        0.58560    0.80900    0.45310    1.000
    H320     H        0.59520    0.83310    0.42810    1.000
    N81      N        0.23504    0.37730    0.36950    1.000
    C401     C        0.27670    0.39043    0.34370    1.000
    H321     H        0.30040    0.36510    0.33270    1.000
    C402     C        0.28460    0.44181    0.33350    1.000
    H322     H        0.31590    0.45190    0.31800    1.000
    C403     C        0.24890    0.47900    0.34490    1.000
    C404     C        0.20680    0.46260    0.37100    1.000
    H323     H        0.18340    0.48730    0.38410    1.000
    C405     C        0.19730    0.41090    0.37860    1.000
    H324     H        0.16470    0.39940    0.39020    1.000
    N82      N        0.86440    0.73101    0.47290    1.000
    C406     C        0.87764    0.77610    0.49320    1.000
    H325     H        0.85250    0.80180    0.49960    1.000
    C407     C        0.92878    0.78450    0.50470    1.000
    H326     H        0.93810    0.81480    0.52240    1.000
    C408     C        0.75010    0.03320    0.50890    1.000
    C409     C        0.70380    0.04950    0.52800    1.000
    H327     H        0.67790    0.02490    0.53550    1.000
    C410     C        0.89890    0.69430    0.46350    1.000
    H328     H        0.88810    0.66190    0.45100    1.000
    N83      N        0.28160    0.13330    0.35130    1.000
    C411     C        0.24480    0.12208    0.31830    1.000
    H329     H        0.22740    0.14890    0.30120    1.000
    C412     C        0.23190    0.07148    0.30920    1.000
    H330     H        0.20560    0.06390    0.28570    1.000
    C413     C        0.25640    0.03180    0.33360    1.000
    C414     C        0.29500    0.04527    0.36630    1.000
    H331     H        0.31500    0.01910    0.38180    1.000
    C415     C        0.30500    0.09630    0.37710    1.000
    H332     H        0.32860    0.10500    0.40290    1.000
    N84      N        0.61480    0.71761    0.36740    1.000
    C416     C        0.60310    0.75930    0.34070    1.000
    H333     H        0.62860    0.78470    0.33430    1.000
    C417     C        0.55400    0.76570    0.32240    1.000
    H334     H        0.54790    0.79020    0.29680    1.000
    C418     C        0.51370    0.73700    0.34040    1.000
    C419     C        0.52743    0.69420    0.36760    1.000
    H335     H        0.50150    0.67100    0.37820    1.000
    C420     C        0.57800    0.68440    0.37980    1.000
    H336     H        0.58660    0.65370    0.39710    1.000
    La8      La       0.25927    0.24894    0.41727    1.000
    O85      O        0.69220    0.21060    0.30960    1.000
    O86      O        0.83130    0.28200    0.29730    1.000
    O87      O        0.79660    0.17200    0.30120    1.000
    O88      O        0.72380    0.31460    0.29650    1.000
    O89      O        0.22080    0.17220    0.45450    1.000
    O90      O        0.19350    0.22060    0.35940    1.000
    O91      O        0.28730    0.31120    0.48110    1.000
    O92      O        0.32810    0.20770    0.47240    1.000
    O93      O        0.76990    0.67400    0.37170    1.000
    O94      O        0.18560    0.27910    0.46440    1.000
    O95      O        0.70320    0.81600    0.35890    1.000
    O96      O        0.33880    0.29210    0.38170    1.000
    N85      N        0.64331    0.22520    0.31208    1.000
    C421     C        0.63248    0.26165    0.34522    1.000
    H337     H        0.65970    0.27860    0.36230    1.000
    C422     C        0.58223    0.27519    0.35501    1.000
    H338     H        0.57520    0.30130    0.37890    1.000
    C423     C        0.54220    0.25162    0.33085    1.000
    C424     C        0.55512    0.21390    0.29690    1.000
    H339     H        0.52860    0.19630    0.27950    1.000
    C425     C        0.60571    0.20110    0.28767    1.000
    H340     H        0.61370    0.17520    0.26390    1.000
    N86      N        0.88260    0.27480    0.30110    1.000
    C426     C        0.91795    0.30660    0.28270    1.000
    H341     H        0.90810    0.33350    0.26070    1.000
    C427     C        0.96900    0.30040    0.29570    1.000
    H342     H        0.99340    0.32540    0.28530    1.000
    C428     C        0.98520    0.25870    0.32320    1.000
    C429     C        0.94725    0.22540    0.33820    1.000
    H343     H        0.95660    0.19340    0.35280    1.000
    C430     C        0.89564    0.23720    0.33270    1.000
    H344     H        0.87010    0.21890    0.35080    1.000
    N87      N        0.78583    0.12449    0.31070    1.000
    C431     C        0.74520    0.11307    0.33900    1.000
    H345     H        0.72380    0.13970    0.35180    1.000
    C432     C        0.73440    0.06217    0.34970    1.000
    H346     H        0.70970    0.05420    0.37470    1.000
    C433     C        0.75890    0.02270    0.32490    1.000
    C434     C        0.80000    0.03615    0.29530    1.000
    H347     H        0.81910    0.01020    0.27860    1.000
    C435     C        0.81370    0.08722    0.28990    1.000
    H348     H        0.84340    0.09590    0.27100    1.000
    N88      N        0.73320    0.36460    0.31150    1.000
    C436     C        0.69960    0.39844    0.29320    1.000
    H349     H        0.67190    0.38730    0.27270    1.000
    C437     C        0.70560    0.45007    0.30440    1.000
    H350     H        0.68310    0.47460    0.28970    1.000
    C438     C        0.74340    0.46650    0.33650    1.000
    C439     C        0.77740    0.43003    0.35270    1.000
    H351     H        0.80670    0.44050    0.37130    1.000
    C440     C        0.77020    0.37860    0.34290    1.000
    H352     H        0.79130    0.35340    0.35840    1.000
    N89      N        0.22850    0.12462    0.47240    1.000
    C441     C        0.26780    0.11061    0.50120    1.000
    H353     H        0.29320    0.13490    0.51100    1.000
    C442     C        0.27080    0.05974    0.51670    1.000
    H354     H        0.29240    0.05100    0.54400    1.000
    C443     C        0.24310    0.02170    0.49290    1.000
    C444     C        0.20550    0.03813    0.46020    1.000
    H355     H        0.18300    0.01360    0.44550    1.000
    C445     C        0.19990    0.08956    0.44870    1.000
    H356     H        0.17590    0.10000    0.42390    1.000
    N90      N        0.14330    0.23282    0.35020    1.000
    C446     C        0.10921    0.19880    0.36720    1.000
    H357     H        0.12080    0.16850    0.38370    1.000
    C447     C        0.05710    0.20720    0.36100    1.000
    H358     H        0.03330    0.18450    0.37650    1.000
    C448     C        0.03900    0.24760    0.33280    1.000
    C449     C        0.07557    0.28390    0.32040    1.000
    H359     H        0.06490    0.31710    0.30990    1.000
    C450     C        0.12750    0.27280    0.32300    1.000
    H360     H        0.15170    0.29350    0.30550    1.000
    N91      N        0.27513    0.36140    0.48960    1.000
    C451     C        0.23370    0.37428    0.51610    1.000
    H361     H        0.21230    0.34850    0.53020    1.000
    C452     C        0.22230    0.42591    0.52290    1.000
    H362     H        0.19490    0.43530    0.54450    1.000
    C453     C        0.24980    0.46380    0.49910    1.000
    C454     C        0.29000    0.44797    0.46960    1.000
    H363     H        0.30770    0.47240    0.44950    1.000
    C455     C        0.30500    0.39693    0.46850    1.000
    H364     H        0.33640    0.38730    0.45300    1.000
    N92      N        0.37870    0.21920    0.47590    1.000
    C456     C        0.39230    0.25860    0.50480    1.000
    H365     H        0.36660    0.27900    0.52040    1.000
    C457     C        0.44365    0.27000    0.51230    1.000
    H366     H        0.45280    0.30020    0.53020    1.000
    C458     C        0.23810    0.51800    0.50580    1.000
    C459     C        0.19710    0.53450    0.53410    1.000
    H367     H        0.17230    0.51010    0.54500    1.000
    C460     C        0.41440    0.19100    0.45310    1.000
    H368     H        0.40480    0.16690    0.42810    1.000
    N93      N        0.76496    0.62270    0.36950    1.000
    C461     C        0.72330    0.60957    0.34370    1.000
    H369     H        0.69960    0.63490    0.33270    1.000
    C462     C        0.71540    0.55819    0.33350    1.000
    H370     H        0.68410    0.54810    0.31800    1.000
    C463     C        0.75110    0.52100    0.34490    1.000
    C464     C        0.79320    0.53740    0.37100    1.000
    H371     H        0.81660    0.51270    0.38410    1.000
    C465     C        0.80270    0.58910    0.37860    1.000
    H372     H        0.83530    0.60060    0.39020    1.000
    N94      N        0.13560    0.26899    0.47290    1.000
    C466     C        0.12236    0.22390    0.49320    1.000
    H373     H        0.14750    0.19820    0.49960    1.000
    C467     C        0.07122    0.21550    0.50470    1.000
    H374     H        0.06190    0.18520    0.52240    1.000
    C468     C        0.24990    0.96680    0.50890    1.000
    C469     C        0.29620    0.95050    0.52800    1.000
    H375     H        0.32210    0.97510    0.53550    1.000
    C470     C        0.10110    0.30570    0.46350    1.000
    H376     H        0.11190    0.33810    0.45100    1.000
    N95      N        0.71840    0.86670    0.35130    1.000
    C471     C        0.75520    0.87792    0.31830    1.000
    H377     H        0.77260    0.85110    0.30120    1.000
    C472     C        0.76810    0.92852    0.30920    1.000
    H378     H        0.79440    0.93610    0.28570    1.000
    C473     C        0.74360    0.96820    0.33360    1.000
    C474     C        0.70500    0.95473    0.36630    1.000
    H379     H        0.68500    0.98090    0.38180    1.000
    C475     C        0.69500    0.90370    0.37710    1.000
    H380     H        0.67140    0.89500    0.40290    1.000
    N96      N        0.38520    0.28239    0.36740    1.000
    C476     C        0.39690    0.24070    0.34070    1.000
    H381     H        0.37140    0.21530    0.33430    1.000
    C477     C        0.44600    0.23430    0.32240    1.000
    H382     H        0.45210    0.20980    0.29680    1.000
    C478     C        0.48630    0.26300    0.34040    1.000
    C479     C        0.47257    0.30580    0.36760    1.000
    H383     H        0.49850    0.32900    0.37820    1.000
    C480     C        0.42200    0.31560    0.37980    1.000
    H384     H        0.41340    0.34630    0.39710    1.000
    La9      La       0.75863    0.24137    0.25000    1.000
    La10     La       0.24137    0.75863    0.25000    1.000
    La11     La       0.24137    0.24137    0.75000    1.000
    La12     La       0.75863    0.75863    0.75000    1.000
