# CIF file generated by openbabel 3.1.0, see https://openbabel.org
data_I
_chemical_name_common 'image0'
_cell_length_a 10.0049
_cell_length_b 8.2745
_cell_length_c 11.8304
_cell_angle_alpha 90
_cell_angle_beta 103.093
_cell_angle_gamma 90
_space_group_name_H-M_alt 'P 1'
_space_group_name_Hall 'P 1'
loop_
    _symmetry_equiv_pos_as_xyz
    x,y,z
loop_
    _atom_site_label
    _atom_site_type_symbol
    _atom_site_fract_x
    _atom_site_fract_y
    _atom_site_fract_z
    _atom_site_occupancy
    Zn1      Zn       0.32276    0.67570    0.02965    1.000
    Zn2      Zn       0.62163    0.65398    0.92951    1.000
    Zn3      Zn       0.07314    0.88043    0.33641    1.000
    Zn4      Zn       0.33633    0.26391    0.71462    1.000
    P1       P        0.58300    0.44980    0.12550    1.000
    P2       P        0.35420    0.86130    0.25930    1.000
    P3       P        0.07350    0.11100    0.54570    1.000
    P4       P        0.17330    0.37710    0.89740    1.000
    O1       O        0.50950    0.58450    0.03980    1.000
    O2       O        0.68900    0.36530    0.07010    1.000
    O3       O        0.16920    0.53000    0.96860    1.000
    O4       O        0.29650    0.71730    0.18300    1.000
    O5       O        0.47650    0.33580    0.15480    1.000
    O6       O        0.20590    0.23090    0.97690    1.000
    O7       O        0.35010    0.01470    0.18840    1.000
    O8       O        0.26880    0.88880    0.35040    1.000
    O9       O        0.02660    0.07270    0.41710    1.000
    O10      O        0.03210    0.34990    0.81880    1.000
    O11      O        0.95360    0.16510    0.59570    1.000
    O12      O        0.12700    0.94480    0.60580    1.000
    O13      O        0.19060    0.23180    0.56820    1.000
    O14      O        0.28540    0.40220    0.82860    1.000
    O15      O        0.49890    0.82390    0.32880    1.000
    O16      O        0.65820    0.53290    0.23860    1.000
    Zn5      Zn       0.67724    0.17570    0.97035    1.000
    Zn6      Zn       0.37837    0.15398    0.07049    1.000
    Zn7      Zn       0.92686    0.38043    0.66359    1.000
    Zn8      Zn       0.66367    0.76391    0.28538    1.000
    P5       P        0.41700    0.94980    0.87450    1.000
    P6       P        0.64580    0.36130    0.74070    1.000
    P7       P        0.92650    0.61100    0.45430    1.000
    P8       P        0.82670    0.87710    0.10260    1.000
    O17      O        0.49050    0.08450    0.96020    1.000
    O18      O        0.31100    0.86530    0.92990    1.000
    O19      O        0.83080    0.03000    0.03140    1.000
    O20      O        0.70350    0.21730    0.81700    1.000
    O21      O        0.52350    0.83580    0.84520    1.000
    O22      O        0.79410    0.73090    0.02310    1.000
    O23      O        0.64990    0.51470    0.81160    1.000
    O24      O        0.73120    0.38880    0.64960    1.000
    O25      O        0.97340    0.57270    0.58290    1.000
    O26      O        0.96790    0.84990    0.18120    1.000
    O27      O        0.04640    0.66510    0.40430    1.000
    O28      O        0.87300    0.44480    0.39420    1.000
    O29      O        0.80940    0.73180    0.43180    1.000
    O30      O        0.71460    0.90220    0.17140    1.000
    O31      O        0.50110    0.32390    0.67120    1.000
    O32      O        0.34180    0.03290    0.76140    1.000
