# CIF file generated by openbabel 3.1.0, see https://openbabel.org
data_I
_chemical_name_common 'HENYUV_clean'
_cell_length_a 7.0249
_cell_length_b 7.0249
_cell_length_c 19.936
_cell_angle_alpha 90
_cell_angle_beta 90
_cell_angle_gamma 90
_space_group_name_H-M_alt 'P 1'
_space_group_name_Hall 'P 1'
loop_
    _symmetry_equiv_pos_as_xyz
    x,y,z
loop_
    _atom_site_label
    _atom_site_type_symbol
    _atom_site_fract_x
    _atom_site_fract_y
    _atom_site_fract_z
    _atom_site_occupancy
    Zn1      Zn       0.00000    0.00000    0.72403    1.000
    Zn2      Zn       0.50000    0.50000    0.22403    1.000
    Zn3      Zn       0.50000    0.50000    0.77597    1.000
    Zn4      Zn       0.00000    0.00000    0.27597    1.000
    H1       H        0.83300    0.23350    0.94930    1.000
    H2       H        0.16700    0.76650    0.94930    1.000
    H3       H        0.26650    0.33300    0.44930    1.000
    H4       H        0.73350    0.66700    0.44930    1.000
    H5       H        0.66700    0.73350    0.55070    1.000
    H6       H        0.33300    0.26650    0.55070    1.000
    H7       H        0.23350    0.83300    0.05070    1.000
    H8       H        0.76650    0.16700    0.05070    1.000
    C1       C        0.89870    0.13780    0.92690    1.000
    C2       C        0.89780    0.12950    0.85740    1.000
    C3       C        0.78100    0.25530    0.81190    1.000
    C4       C        0.10130    0.86220    0.92690    1.000
    C5       C        0.10220    0.87050    0.85740    1.000
    C6       C        0.21900    0.74470    0.81190    1.000
    C7       C        0.36220    0.39870    0.42690    1.000
    C8       C        0.37050    0.39780    0.35740    1.000
    C9       C        0.24470    0.28100    0.31190    1.000
    C10      C        0.63780    0.60130    0.42690    1.000
    C11      C        0.62950    0.60220    0.35740    1.000
    C12      C        0.75530    0.71900    0.31190    1.000
    C13      C        0.60130    0.63780    0.57310    1.000
    C14      C        0.60220    0.62950    0.64260    1.000
    C15      C        0.71900    0.75530    0.68810    1.000
    C16      C        0.39870    0.36220    0.57310    1.000
    C17      C        0.39780    0.37050    0.64260    1.000
    C18      C        0.28100    0.24470    0.68810    1.000
    C19      C        0.13780    0.89870    0.07310    1.000
    C20      C        0.12950    0.89780    0.14260    1.000
    C21      C        0.25530    0.78100    0.18810    1.000
    C22      C        0.86220    0.10130    0.07310    1.000
    C23      C        0.87050    0.10220    0.14260    1.000
    C24      C        0.74470    0.21900    0.18810    1.000
    C25      C        0.00000    0.00000    0.96260    1.000
    C26      C        0.50000    0.50000    0.46260    1.000
    C27      C        0.50000    0.50000    0.53740    1.000
    C28      C        0.00000    0.00000    0.03740    1.000
    N1       N        0.00000    0.00000    0.82480    1.000
    N2       N        0.50000    0.50000    0.32480    1.000
    N3       N        0.50000    0.50000    0.67520    1.000
    N4       N        0.00000    0.00000    0.17520    1.000
    O1       O        0.66390    0.36540    0.83965    1.000
    O2       O        0.80580    0.23590    0.75045    1.000
    O3       O        0.33610    0.63460    0.83965    1.000
    O4       O        0.19420    0.76410    0.75045    1.000
    O5       O        0.13460    0.16390    0.33965    1.000
    O6       O        0.26410    0.30580    0.25045    1.000
    O7       O        0.86540    0.83610    0.33965    1.000
    O8       O        0.73590    0.69420    0.25045    1.000
    O9       O        0.83610    0.86540    0.66035    1.000
    O10      O        0.69420    0.73590    0.74955    1.000
    O11      O        0.16390    0.13460    0.66035    1.000
    O12      O        0.30580    0.26410    0.74955    1.000
    O13      O        0.36540    0.66390    0.16035    1.000
    O14      O        0.23590    0.80580    0.24955    1.000
    O15      O        0.63460    0.33610    0.16035    1.000
    O16      O        0.76410    0.19420    0.24955    1.000
