# CIF file generated by openbabel 3.1.0, see https://openbabel.org
data_I
_chemical_name_common 'image0'
_cell_length_a 13.5494
_cell_length_b 13.5494
_cell_length_c 15.2795
_cell_angle_alpha 90
_cell_angle_beta 90
_cell_angle_gamma 120
_space_group_name_H-M_alt 'P 1'
_space_group_name_Hall 'P 1'
loop_
    _symmetry_equiv_pos_as_xyz
    x,y,z
loop_
    _atom_site_label
    _atom_site_type_symbol
    _atom_site_fract_x
    _atom_site_fract_y
    _atom_site_fract_z
    _atom_site_occupancy
    Al1      Al       0.09730    0.66210    0.06950    1.000
    P1       P        0.32830    0.89790    0.06300    1.000
    O1       O        0.21600    0.78960    0.04360    1.000
    O2       O        0.12590    0.55280    0.05200    1.000
    O3       O        0.98980    0.64960    0.00190    1.000
    O4       O        0.05390    0.66070    0.17730    1.000
    Al2      Al       0.76397    0.99543    0.40283    1.000
    P2       P        0.99497    0.23123    0.39633    1.000
    O5       O        0.88267    0.12293    0.37693    1.000
    O6       O        0.79257    0.88613    0.38533    1.000
    O7       O        0.65647    0.98293    0.33523    1.000
    O8       O        0.72057    0.99403    0.51063    1.000
    Al3      Al       0.43063    0.32877    0.73617    1.000
    P3       P        0.66163    0.56457    0.72967    1.000
    O9       O        0.54933    0.45627    0.71027    1.000
    O10      O        0.45923    0.21947    0.71867    1.000
    O11      O        0.32313    0.31627    0.66857    1.000
    O12      O        0.38723    0.32737    0.84397    1.000
    Al4      Al       0.33790    0.43520    0.06950    1.000
    P4       P        0.10210    0.43040    0.06300    1.000
    O13      O        0.21040    0.42640    0.04360    1.000
    O14      O        0.44720    0.57310    0.05200    1.000
    O15      O        0.35040    0.34020    0.00190    1.000
    O16      O        0.33930    0.39320    0.17730    1.000
    Al5      Al       0.00457    0.76853    0.40283    1.000
    P5       P        0.76877    0.76373    0.39633    1.000
    O17      O        0.87707    0.75973    0.37693    1.000
    O18      O        0.11387    0.90643    0.38533    1.000
    O19      O        0.01707    0.67353    0.33523    1.000
    O20      O        0.00597    0.72653    0.51063    1.000
    Al6      Al       0.67123    0.10187    0.73617    1.000
    P6       P        0.43543    0.09707    0.72967    1.000
    O21      O        0.54373    0.09307    0.71027    1.000
    O22      O        0.78053    0.23977    0.71867    1.000
    O23      O        0.68373    0.00687    0.66857    1.000
    O24      O        0.67263    0.05987    0.84397    1.000
    Al7      Al       0.56480    0.90270    0.06950    1.000
    P7       P        0.56960    0.67170    0.06300    1.000
    O25      O        0.57360    0.78400    0.04360    1.000
    O26      O        0.42690    0.87410    0.05200    1.000
    O27      O        0.65980    0.01020    0.00190    1.000
    O28      O        0.60680    0.94610    0.17730    1.000
    Al8      Al       0.23147    0.23603    0.40283    1.000
    P8       P        0.23627    0.00503    0.39633    1.000
    O29      O        0.24027    0.11733    0.37693    1.000
    O30      O        0.09357    0.20743    0.38533    1.000
    O31      O        0.32647    0.34353    0.33523    1.000
    O32      O        0.27347    0.27943    0.51063    1.000
    Al9      Al       0.89813    0.56937    0.73617    1.000
    P9       P        0.90293    0.33837    0.72967    1.000
    O33      O        0.90693    0.45067    0.71027    1.000
    O34      O        0.76023    0.54077    0.71867    1.000
    O35      O        0.99313    0.67687    0.66857    1.000
    O36      O        0.94013    0.61277    0.84397    1.000
    Al10     Al       0.90270    0.33790    0.93050    1.000
    P10      P        0.67170    0.10210    0.93700    1.000
    O37      O        0.78400    0.21040    0.95640    1.000
    O38      O        0.87410    0.44720    0.94800    1.000
    O39      O        0.01020    0.35040    0.99810    1.000
    O40      O        0.94610    0.33930    0.82270    1.000
    Al11     Al       0.56937    0.67123    0.26383    1.000
    P11      P        0.33837    0.43543    0.27033    1.000
    O41      O        0.45067    0.54373    0.28973    1.000
    O42      O        0.54077    0.78053    0.28133    1.000
    O43      O        0.67687    0.68373    0.33143    1.000
    O44      O        0.61277    0.67263    0.15603    1.000
    Al12     Al       0.23603    0.00457    0.59717    1.000
    P12      P        0.00503    0.76877    0.60367    1.000
    O45      O        0.11733    0.87707    0.62307    1.000
    O46      O        0.20743    0.11387    0.61467    1.000
    O47      O        0.34353    0.01707    0.66477    1.000
    O48      O        0.27943    0.00597    0.48937    1.000
    Al13     Al       0.66210    0.56480    0.93050    1.000
    P13      P        0.89790    0.56960    0.93700    1.000
    O49      O        0.78960    0.57360    0.95640    1.000
    O50      O        0.55280    0.42690    0.94800    1.000
    O51      O        0.64960    0.65980    0.99810    1.000
    O52      O        0.66070    0.60680    0.82270    1.000
    Al14     Al       0.32877    0.89813    0.26383    1.000
    P14      P        0.56457    0.90293    0.27033    1.000
    O53      O        0.45627    0.90693    0.28973    1.000
    O54      O        0.21947    0.76023    0.28133    1.000
    O55      O        0.31627    0.99313    0.33143    1.000
    O56      O        0.32737    0.94013    0.15603    1.000
    Al15     Al       0.99543    0.23147    0.59717    1.000
    P15      P        0.23123    0.23627    0.60367    1.000
    O57      O        0.12293    0.24027    0.62307    1.000
    O58      O        0.88613    0.09357    0.61467    1.000
    O59      O        0.98293    0.32647    0.66477    1.000
    O60      O        0.99403    0.27347    0.48937    1.000
    Al16     Al       0.43520    0.09730    0.93050    1.000
    P16      P        0.43040    0.32830    0.93700    1.000
    O61      O        0.42640    0.21600    0.95640    1.000
    O62      O        0.57310    0.12590    0.94800    1.000
    O63      O        0.34020    0.98980    0.99810    1.000
    O64      O        0.39320    0.05390    0.82270    1.000
    Al17     Al       0.10187    0.43063    0.26383    1.000
    P17      P        0.09707    0.66163    0.27033    1.000
    O65      O        0.09307    0.54933    0.28973    1.000
    O66      O        0.23977    0.45923    0.28133    1.000
    O67      O        0.00687    0.32313    0.33143    1.000
    O68      O        0.05987    0.38723    0.15603    1.000
    Al18     Al       0.76853    0.76397    0.59717    1.000
    P18      P        0.76373    0.99497    0.60367    1.000
    O69      O        0.75973    0.88267    0.62307    1.000
    O70      O        0.90643    0.79257    0.61467    1.000
    O71      O        0.67353    0.65647    0.66477    1.000
    O72      O        0.72653    0.72057    0.48937    1.000
