# CIF file generated by openbabel 3.1.0, see https://openbabel.org
data_I
_chemical_name_common 'image0'
_cell_length_a 11.136
_cell_length_b 12.852
_cell_length_c 13.459
_cell_angle_alpha 90
_cell_angle_beta 90
_cell_angle_gamma 90
_space_group_name_H-M_alt 'P 1'
_space_group_name_Hall 'P 1'
loop_
    _symmetry_equiv_pos_as_xyz
    x,y,z
loop_
    _atom_site_label
    _atom_site_type_symbol
    _atom_site_fract_x
    _atom_site_fract_y
    _atom_site_fract_z
    _atom_site_occupancy
    N1       N        0.63060    0.38720    0.20710    1.000
    C1       C        0.56450    0.44440    0.17930    1.000
    C2       C        0.47230    0.51590    0.14150    1.000
    H1       H        0.46900    0.57760    0.18300    1.000
    H2       H        0.39430    0.48240    0.14360    1.000
    C3       C        0.50200    0.54700    0.03440    1.000
    H3       H        0.44500    0.59870    0.01170    1.000
    H4       H        0.58160    0.57770    0.03220    1.000
    C4       C        0.44530    0.49320    0.03270    1.000
    H5       H        0.41610    0.42240    0.02660    1.000
    H6       H        0.38230    0.53960    0.01000    1.000
    N2       N        0.85200    0.29250    0.38880    1.000
    C5       C        0.91680    0.31800    0.44660    1.000
    C6       C        0.99840    0.35300    0.52340    1.000
    H7       H        0.06350    0.30330    0.53000    1.000
    H8       H        0.95600    0.35590    0.58630    1.000
    C7       C        0.05020    0.45980    0.50020    1.000
    H9       H        0.08930    0.45850    0.43580    1.000
    H10      H        0.10970    0.47820    0.54980    1.000
    C8       C        0.98280    0.46860    0.54570    1.000
    H11      H        0.03340    0.48820    0.60130    1.000
    H12      H        0.90000    0.48270    0.56350    1.000
    N3       N        0.63060    0.11280    0.29290    1.000
    C9       C        0.56450    0.05560    0.32070    1.000
    C10      C        0.47230    0.98410    0.35850    1.000
    H13      H        0.46900    0.92240    0.31700    1.000
    H14      H        0.39430    0.01760    0.35640    1.000
    C11      C        0.50200    0.95300    0.46560    1.000
    H15      H        0.44500    0.90130    0.48830    1.000
    H16      H        0.58160    0.92230    0.46780    1.000
    C12      C        0.44530    0.00680    0.46730    1.000
    H17      H        0.41610    0.07760    0.47340    1.000
    H18      H        0.38230    0.96040    0.49000    1.000
    N4       N        0.85200    0.20750    0.11120    1.000
    C13      C        0.91680    0.18200    0.05340    1.000
    C14      C        0.99840    0.14700    0.97660    1.000
    H19      H        0.06350    0.19670    0.97000    1.000
    H20      H        0.95600    0.14410    0.91370    1.000
    C15      C        0.05020    0.04020    0.99980    1.000
    H21      H        0.08930    0.04150    0.06420    1.000
    H22      H        0.10970    0.02180    0.95020    1.000
    C16      C        0.98280    0.03140    0.95430    1.000
    H23      H        0.03340    0.01180    0.89870    1.000
    H24      H        0.90000    0.01730    0.93650    1.000
    N5       N        0.36940    0.61280    0.79290    1.000
    C17      C        0.43550    0.55560    0.82070    1.000
    C18      C        0.52770    0.48410    0.85850    1.000
    H25      H        0.53100    0.42240    0.81700    1.000
    H26      H        0.60570    0.51760    0.85640    1.000
    C19      C        0.49800    0.45300    0.96560    1.000
    H27      H        0.55500    0.40130    0.98830    1.000
    H28      H        0.41840    0.42230    0.96780    1.000
    C20      C        0.55470    0.50680    0.96730    1.000
    H29      H        0.58390    0.57760    0.97340    1.000
    H30      H        0.61770    0.46040    0.99000    1.000
    N6       N        0.14800    0.70750    0.61120    1.000
    C21      C        0.08320    0.68200    0.55340    1.000
    C22      C        0.00160    0.64700    0.47660    1.000
    H31      H        0.93650    0.69670    0.47000    1.000
    H32      H        0.04400    0.64410    0.41370    1.000
    C23      C        0.94980    0.54020    0.49980    1.000
    H33      H        0.91070    0.54150    0.56420    1.000
    H34      H        0.89030    0.52180    0.45020    1.000
    C24      C        0.01720    0.53140    0.45430    1.000
    H35      H        0.96660    0.51180    0.39870    1.000
    H36      H        0.10000    0.51730    0.43650    1.000
    N7       N        0.36940    0.88720    0.70710    1.000
    C25      C        0.43550    0.94440    0.67930    1.000
    C26      C        0.52770    0.01590    0.64150    1.000
    H37      H        0.53100    0.07760    0.68300    1.000
    H38      H        0.60570    0.98240    0.64360    1.000
    C27      C        0.49800    0.04700    0.53440    1.000
    H39      H        0.55500    0.09870    0.51170    1.000
    H40      H        0.41840    0.07770    0.53220    1.000
    C28      C        0.55470    0.99320    0.53270    1.000
    H41      H        0.58390    0.92240    0.52660    1.000
    H42      H        0.61770    0.03960    0.51000    1.000
    N8       N        0.14800    0.79250    0.88880    1.000
    C29      C        0.08320    0.81800    0.94660    1.000
    C30      C        0.00160    0.85300    0.02340    1.000
    H43      H        0.93650    0.80330    0.03000    1.000
    H44      H        0.04400    0.85590    0.08630    1.000
    C31      C        0.94980    0.95980    0.00020    1.000
    H45      H        0.91070    0.95850    0.93580    1.000
    H46      H        0.89030    0.97820    0.04980    1.000
    C32      C        0.01720    0.96860    0.04570    1.000
    H47      H        0.96660    0.98820    0.10130    1.000
    H48      H        0.10000    0.98270    0.06350    1.000
    Ag1      Ag       0.74797    0.25000    0.25000    1.000
    Ag2      Ag       0.25203    0.75000    0.75000    1.000
    N9       N        0.86940    0.38720    0.79290    1.000
    C33      C        0.93550    0.44440    0.82070    1.000
    C34      C        0.02770    0.51590    0.85850    1.000
    H49      H        0.03100    0.57760    0.81700    1.000
    H50      H        0.10570    0.48240    0.85640    1.000
    C35      C        0.99800    0.54700    0.96560    1.000
    H51      H        0.05500    0.59870    0.98830    1.000
    H52      H        0.91840    0.57770    0.96780    1.000
    C36      C        0.05470    0.49320    0.96730    1.000
    H53      H        0.08390    0.42240    0.97340    1.000
    H54      H        0.11770    0.53960    0.99000    1.000
    N10      N        0.64800    0.29250    0.61120    1.000
    C37      C        0.58320    0.31800    0.55340    1.000
    C38      C        0.50160    0.35300    0.47660    1.000
    H55      H        0.43650    0.30330    0.47000    1.000
    H56      H        0.54400    0.35590    0.41370    1.000
    C39      C        0.44980    0.45980    0.49980    1.000
    H57      H        0.41070    0.45850    0.56420    1.000
    H58      H        0.39030    0.47820    0.45020    1.000
    C40      C        0.51720    0.46860    0.45430    1.000
    H59      H        0.46660    0.48820    0.39870    1.000
    H60      H        0.60000    0.48270    0.43650    1.000
    N11      N        0.86940    0.11280    0.70710    1.000
    C41      C        0.93550    0.05560    0.67930    1.000
    C42      C        0.02770    0.98410    0.64150    1.000
    H61      H        0.03100    0.92240    0.68300    1.000
    H62      H        0.10570    0.01760    0.64360    1.000
    C43      C        0.99800    0.95300    0.53440    1.000
    H63      H        0.05500    0.90130    0.51170    1.000
    H64      H        0.91840    0.92230    0.53220    1.000
    C44      C        0.05470    0.00680    0.53270    1.000
    H65      H        0.08390    0.07760    0.52660    1.000
    H66      H        0.11770    0.96040    0.51000    1.000
    N12      N        0.64800    0.20750    0.88880    1.000
    C45      C        0.58320    0.18200    0.94660    1.000
    C46      C        0.50160    0.14700    0.02340    1.000
    H67      H        0.43650    0.19670    0.03000    1.000
    H68      H        0.54400    0.14410    0.08630    1.000
    C47      C        0.44980    0.04020    0.00020    1.000
    H69      H        0.41070    0.04150    0.93580    1.000
    H70      H        0.39030    0.02180    0.04980    1.000
    C48      C        0.51720    0.03140    0.04570    1.000
    H71      H        0.46660    0.01180    0.10130    1.000
    H72      H        0.60000    0.01730    0.06350    1.000
    N13      N        0.13060    0.61280    0.20710    1.000
    C49      C        0.06450    0.55560    0.17930    1.000
    C50      C        0.97230    0.48410    0.14150    1.000
    H73      H        0.96900    0.42240    0.18300    1.000
    H74      H        0.89430    0.51760    0.14360    1.000
    C51      C        0.00200    0.45300    0.03440    1.000
    H75      H        0.94500    0.40130    0.01170    1.000
    H76      H        0.08160    0.42230    0.03220    1.000
    C52      C        0.94530    0.50680    0.03270    1.000
    H77      H        0.91610    0.57760    0.02660    1.000
    H78      H        0.88230    0.46040    0.01000    1.000
    N14      N        0.35200    0.70750    0.38880    1.000
    C53      C        0.41680    0.68200    0.44660    1.000
    C54      C        0.49840    0.64700    0.52340    1.000
    H79      H        0.56350    0.69670    0.53000    1.000
    H80      H        0.45600    0.64410    0.58630    1.000
    C55      C        0.55020    0.54020    0.50020    1.000
    H81      H        0.58930    0.54150    0.43580    1.000
    H82      H        0.60970    0.52180    0.54980    1.000
    C56      C        0.48280    0.53140    0.54570    1.000
    H83      H        0.53340    0.51180    0.60130    1.000
    H84      H        0.40000    0.51730    0.56350    1.000
    N15      N        0.13060    0.88720    0.29290    1.000
    C57      C        0.06450    0.94440    0.32070    1.000
    C58      C        0.97230    0.01590    0.35850    1.000
    H85      H        0.96900    0.07760    0.31700    1.000
    H86      H        0.89430    0.98240    0.35640    1.000
    C59      C        0.00200    0.04700    0.46560    1.000
    H87      H        0.94500    0.09870    0.48830    1.000
    H88      H        0.08160    0.07770    0.46780    1.000
    C60      C        0.94530    0.99320    0.46730    1.000
    H89      H        0.91610    0.92240    0.47340    1.000
    H90      H        0.88230    0.03960    0.49000    1.000
    N16      N        0.35200    0.79250    0.11120    1.000
    C61      C        0.41680    0.81800    0.05340    1.000
    C62      C        0.49840    0.85300    0.97660    1.000
    H91      H        0.56350    0.80330    0.97000    1.000
    H92      H        0.45600    0.85590    0.91370    1.000
    C63      C        0.55020    0.95980    0.99980    1.000
    H93      H        0.58930    0.95850    0.06420    1.000
    H94      H        0.60970    0.97820    0.95020    1.000
    C64      C        0.48280    0.96860    0.95430    1.000
    H95      H        0.53340    0.98820    0.89870    1.000
    H96      H        0.40000    0.98270    0.93650    1.000
    Ag3      Ag       0.75203    0.25000    0.75000    1.000
    Ag4      Ag       0.24797    0.75000    0.25000    1.000
