# CIF file generated by openbabel 3.1.0, see https://openbabel.org
data_I
_chemical_name_common 'image0'
_cell_length_a 18.0648
_cell_length_b 18.0648
_cell_length_c 17.1132
_cell_angle_alpha 90
_cell_angle_beta 90
_cell_angle_gamma 90
_space_group_name_H-M_alt 'P 1'
_space_group_name_Hall 'P 1'
loop_
    _symmetry_equiv_pos_as_xyz
    x,y,z
loop_
    _atom_site_label
    _atom_site_type_symbol
    _atom_site_fract_x
    _atom_site_fract_y
    _atom_site_fract_z
    _atom_site_occupancy
    C1       C        0.72680    0.00110    0.48630    1.000
    H1       H        0.75390    0.00140    0.43870    1.000
    C2       C        0.71040    0.06750    0.52370    1.000
    C3       C        0.67070    0.06710    0.59330    1.000
    H2       H        0.65960    0.11240    0.61890    1.000
    C4       C        0.64750    0.00040    0.62550    1.000
    C5       C        0.66380    0.93410    0.58810    1.000
    H3       H        0.64790    0.88850    0.61010    1.000
    C6       C        0.70350    0.93440    0.51850    1.000
    C7       C        0.54500    0.05700    0.98250    1.000
    C8       C        0.53600    0.10610    0.04800    1.000
    C9       C        0.50190    0.14140    0.18060    1.000
    C10      C        0.43520    0.15670    0.21770    1.000
    H4       H        0.39000    0.13950    0.19590    1.000
    C11      C        0.43460    0.19730    0.28670    1.000
    C12      C        0.50070    0.22250    0.31870    1.000
    H5       H        0.50020    0.25030    0.36580    1.000
    C13      C        0.56740    0.20720    0.28160    1.000
    C14      C        0.56800    0.16660    0.21260    1.000
    H6       H        0.61360    0.15620    0.18720    1.000
    C15      C        0.54450    0.93230    0.93870    1.000
    C16      C        0.53460    0.98210    0.99930    1.000
    C17      C        0.51440    0.95770    0.07310    1.000
    C18      C        0.49600    0.11670    0.08650    1.000
    C19      C        0.48600    0.16650    0.02600    1.000
    C20      C        0.53420    0.85800    0.95210    1.000
    C21      C        0.51400    0.07540    0.12000    1.000
    C22      C        0.51300    0.00150    0.13960    1.000
    C23      C        0.62070    0.99750    0.71250    1.000
    C24      C        0.54570    0.98900    0.72780    1.000
    C25      C        0.52200    0.97220    0.80310    1.000
    C26      C        0.57330    0.96400    0.86290    1.000
    C27      C        0.64840    0.97250    0.84750    1.000
    C28      C        0.67210    0.98930    0.77230    1.000
    C29      C        0.57470    0.01480    0.67890    1.000
    C30      C        0.60440    0.04550    0.74740    1.000
    C31      C        0.44850    0.94710    0.80860    1.000
    Cu1      Cu       0.70930    0.71410    0.45289    1.000
    Cu2      Cu       0.78690    0.78960    0.34758    1.000
    C32      C        0.63560    0.22940    0.32480    1.000
    C33      C        0.36450    0.21570    0.32520    1.000
    O1       O        0.76250    0.87400    0.41220    1.000
    C34      C        0.72380    0.86560    0.47610    1.000
    O2       O        0.69700    0.80680    0.50690    1.000
    O3       O        0.86680    0.75940    0.40930    1.000
    C35      C        0.72780    0.13350    0.47910    1.000
    O4       O        0.80530    0.70670    0.50840    1.000
    O5       O        0.30460    0.18770    0.30030    1.000
    O6       O        0.70010    0.20620    0.29480    1.000
    O7       O        0.63180    0.26780    0.38690    1.000
    O8       O        0.36610    0.26670    0.37780    1.000
    O9       O        0.55080    0.81750    0.88700    1.000
    O10      O        0.70050    0.98470    0.91130    1.000
    C36      C        0.81300    0.92200    0.93000    1.000
    C37      C        0.83900    0.87700    0.99000    1.000
    C38      C        0.91200    0.88200    0.01300    1.000
    C39      C        0.96000    0.93000    0.97600    1.000
    C40      C        0.93500    0.97500    0.91600    1.000
    C41      C        0.86100    0.97100    0.89300    1.000
    C42      C        0.73700    0.91800    0.90800    1.000
    C43      C        0.52920    0.69840    0.93230    1.000
    C44      C        0.46600    0.68700    0.88710    1.000
    C45      C        0.41500    0.63300    0.90900    1.000
    C46      C        0.42600    0.59200    0.97700    1.000
    C47      C        0.48900    0.60390    0.02200    1.000
    C48      C        0.54100    0.65700    0.99980    1.000
    C49      C        0.58500    0.75450    0.91000    1.000
    C50      C        0.27320    0.99890    0.48630    1.000
    H7       H        0.24610    0.99860    0.43870    1.000
    C51      C        0.28960    0.93250    0.52370    1.000
    C52      C        0.32930    0.93290    0.59330    1.000
    H8       H        0.34040    0.88760    0.61890    1.000
    C53      C        0.35250    0.99960    0.62550    1.000
    C54      C        0.33620    0.06590    0.58810    1.000
    H9       H        0.35210    0.11150    0.61010    1.000
    C55      C        0.29650    0.06560    0.51850    1.000
    C56      C        0.45500    0.94300    0.98250    1.000
    C57      C        0.46400    0.89390    0.04800    1.000
    C58      C        0.49810    0.85860    0.18060    1.000
    C59      C        0.56480    0.84330    0.21770    1.000
    H10      H        0.61000    0.86050    0.19590    1.000
    C60      C        0.56540    0.80270    0.28670    1.000
    C61      C        0.49930    0.77750    0.31870    1.000
    H11      H        0.49980    0.74970    0.36580    1.000
    C62      C        0.43260    0.79280    0.28160    1.000
    C63      C        0.43200    0.83340    0.21260    1.000
    H12      H        0.38640    0.84380    0.18720    1.000
    C64      C        0.45550    0.06770    0.93870    1.000
    C65      C        0.46540    0.01790    0.99930    1.000
    C66      C        0.48560    0.04230    0.07310    1.000
    C67      C        0.50400    0.88330    0.08650    1.000
    C68      C        0.51400    0.83350    0.02600    1.000
    C69      C        0.46580    0.14200    0.95210    1.000
    C70      C        0.48600    0.92460    0.12000    1.000
    C71      C        0.48700    0.99850    0.13960    1.000
    C72      C        0.37930    0.00250    0.71250    1.000
    C73      C        0.45430    0.01100    0.72780    1.000
    C74      C        0.47800    0.02780    0.80310    1.000
    C75      C        0.42670    0.03600    0.86290    1.000
    C76      C        0.35160    0.02750    0.84750    1.000
    C77      C        0.32790    0.01070    0.77230    1.000
    C78      C        0.42530    0.98520    0.67890    1.000
    C79      C        0.39560    0.95450    0.74740    1.000
    C80      C        0.55150    0.05290    0.80860    1.000
    Cu3      Cu       0.29070    0.28590    0.45289    1.000
    Cu4      Cu       0.21310    0.21040    0.34758    1.000
    C81      C        0.36440    0.77060    0.32480    1.000
    C82      C        0.63550    0.78430    0.32520    1.000
    O11      O        0.23750    0.12600    0.41220    1.000
    C83      C        0.27620    0.13440    0.47610    1.000
    O12      O        0.30300    0.19320    0.50690    1.000
    O13      O        0.13320    0.24060    0.40930    1.000
    C84      C        0.27220    0.86650    0.47910    1.000
    O14      O        0.19470    0.29330    0.50840    1.000
    O15      O        0.69540    0.81230    0.30030    1.000
    O16      O        0.29990    0.79380    0.29480    1.000
    O17      O        0.36820    0.73220    0.38690    1.000
    O18      O        0.63390    0.73330    0.37780    1.000
    O19      O        0.44920    0.18250    0.88700    1.000
    O20      O        0.29950    0.01530    0.91130    1.000
    C85      C        0.18700    0.07800    0.93000    1.000
    C86      C        0.16100    0.12300    0.99000    1.000
    C87      C        0.08800    0.11800    0.01300    1.000
    C88      C        0.04000    0.07000    0.97600    1.000
    C89      C        0.06500    0.02500    0.91600    1.000
    C90      C        0.13900    0.02900    0.89300    1.000
    C91      C        0.26300    0.08200    0.90800    1.000
    C92      C        0.47080    0.30160    0.93230    1.000
    C93      C        0.53400    0.31300    0.88710    1.000
    C94      C        0.58500    0.36700    0.90900    1.000
    C95      C        0.57400    0.40800    0.97700    1.000
    C96      C        0.51100    0.39610    0.02200    1.000
    C97      C        0.45900    0.34300    0.99980    1.000
    C98      C        0.41500    0.24550    0.91000    1.000
    C99      C        0.99890    0.72680    0.48630    1.000
    H13      H        0.99860    0.75390    0.43870    1.000
    C100     C        0.93250    0.71040    0.52370    1.000
    C101     C        0.93290    0.67070    0.59330    1.000
    H14      H        0.88760    0.65960    0.61890    1.000
    C102     C        0.99960    0.64750    0.62550    1.000
    C103     C        0.06590    0.66380    0.58810    1.000
    H15      H        0.11150    0.64790    0.61010    1.000
    C104     C        0.06560    0.70350    0.51850    1.000
    C105     C        0.94300    0.54500    0.98250    1.000
    C106     C        0.89390    0.53600    0.04800    1.000
    C107     C        0.85860    0.50190    0.18060    1.000
    C108     C        0.84330    0.43520    0.21770    1.000
    H16      H        0.86050    0.39000    0.19590    1.000
    C109     C        0.80270    0.43460    0.28670    1.000
    C110     C        0.77750    0.50070    0.31870    1.000
    H17      H        0.74970    0.50020    0.36580    1.000
    C111     C        0.79280    0.56740    0.28160    1.000
    C112     C        0.83340    0.56800    0.21260    1.000
    H18      H        0.84380    0.61360    0.18720    1.000
    C113     C        0.06770    0.54450    0.93870    1.000
    C114     C        0.01790    0.53460    0.99930    1.000
    C115     C        0.04230    0.51440    0.07310    1.000
    C116     C        0.88330    0.49600    0.08650    1.000
    C117     C        0.83350    0.48600    0.02600    1.000
    C118     C        0.14200    0.53420    0.95210    1.000
    C119     C        0.92460    0.51400    0.12000    1.000
    C120     C        0.99850    0.51300    0.13960    1.000
    C121     C        0.00250    0.62070    0.71250    1.000
    C122     C        0.01100    0.54570    0.72780    1.000
    C123     C        0.02780    0.52200    0.80310    1.000
    C124     C        0.03600    0.57330    0.86290    1.000
    C125     C        0.02750    0.64840    0.84750    1.000
    C126     C        0.01070    0.67210    0.77230    1.000
    C127     C        0.98520    0.57470    0.67890    1.000
    C128     C        0.95450    0.60440    0.74740    1.000
    C129     C        0.05290    0.44850    0.80860    1.000
    Cu5      Cu       0.28590    0.70930    0.45289    1.000
    Cu6      Cu       0.21040    0.78690    0.34758    1.000
    C130     C        0.77060    0.63560    0.32480    1.000
    C131     C        0.78430    0.36450    0.32520    1.000
    O21      O        0.12600    0.76250    0.41220    1.000
    C132     C        0.13440    0.72380    0.47610    1.000
    O22      O        0.19320    0.69700    0.50690    1.000
    O23      O        0.24060    0.86680    0.40930    1.000
    C133     C        0.86650    0.72780    0.47910    1.000
    O24      O        0.29330    0.80530    0.50840    1.000
    O25      O        0.81230    0.30460    0.30030    1.000
    O26      O        0.79380    0.70010    0.29480    1.000
    O27      O        0.73220    0.63180    0.38690    1.000
    O28      O        0.73330    0.36610    0.37780    1.000
    O29      O        0.18250    0.55080    0.88700    1.000
    O30      O        0.01530    0.70050    0.91130    1.000
    C134     C        0.07800    0.81300    0.93000    1.000
    C135     C        0.12300    0.83900    0.99000    1.000
    C136     C        0.11800    0.91200    0.01300    1.000
    C137     C        0.07000    0.96000    0.97600    1.000
    C138     C        0.02500    0.93500    0.91600    1.000
    C139     C        0.02900    0.86100    0.89300    1.000
    C140     C        0.08200    0.73700    0.90800    1.000
    C141     C        0.30160    0.52920    0.93230    1.000
    C142     C        0.31300    0.46600    0.88710    1.000
    C143     C        0.36700    0.41500    0.90900    1.000
    C144     C        0.40800    0.42600    0.97700    1.000
    C145     C        0.39610    0.48900    0.02200    1.000
    C146     C        0.34300    0.54100    0.99980    1.000
    C147     C        0.24550    0.58500    0.91000    1.000
    C148     C        0.00110    0.27320    0.48630    1.000
    H19      H        0.00140    0.24610    0.43870    1.000
    C149     C        0.06750    0.28960    0.52370    1.000
    C150     C        0.06710    0.32930    0.59330    1.000
    H20      H        0.11240    0.34040    0.61890    1.000
    C151     C        0.00040    0.35250    0.62550    1.000
    C152     C        0.93410    0.33620    0.58810    1.000
    H21      H        0.88850    0.35210    0.61010    1.000
    C153     C        0.93440    0.29650    0.51850    1.000
    C154     C        0.05700    0.45500    0.98250    1.000
    C155     C        0.10610    0.46400    0.04800    1.000
    C156     C        0.14140    0.49810    0.18060    1.000
    C157     C        0.15670    0.56480    0.21770    1.000
    H22      H        0.13950    0.61000    0.19590    1.000
    C158     C        0.19730    0.56540    0.28670    1.000
    C159     C        0.22250    0.49930    0.31870    1.000
    H23      H        0.25030    0.49980    0.36580    1.000
    C160     C        0.20720    0.43260    0.28160    1.000
    C161     C        0.16660    0.43200    0.21260    1.000
    H24      H        0.15620    0.38640    0.18720    1.000
    C162     C        0.93230    0.45550    0.93870    1.000
    C163     C        0.98210    0.46540    0.99930    1.000
    C164     C        0.95770    0.48560    0.07310    1.000
    C165     C        0.11670    0.50400    0.08650    1.000
    C166     C        0.16650    0.51400    0.02600    1.000
    C167     C        0.85800    0.46580    0.95210    1.000
    C168     C        0.07540    0.48600    0.12000    1.000
    C169     C        0.00150    0.48700    0.13960    1.000
    C170     C        0.99750    0.37930    0.71250    1.000
    C171     C        0.98900    0.45430    0.72780    1.000
    C172     C        0.97220    0.47800    0.80310    1.000
    C173     C        0.96400    0.42670    0.86290    1.000
    C174     C        0.97250    0.35160    0.84750    1.000
    C175     C        0.98930    0.32790    0.77230    1.000
    C176     C        0.01480    0.42530    0.67890    1.000
    C177     C        0.04550    0.39560    0.74740    1.000
    C178     C        0.94710    0.55150    0.80860    1.000
    Cu7      Cu       0.71410    0.29070    0.45289    1.000
    Cu8      Cu       0.78960    0.21310    0.34758    1.000
    C179     C        0.22940    0.36440    0.32480    1.000
    C180     C        0.21570    0.63550    0.32520    1.000
    O31      O        0.87400    0.23750    0.41220    1.000
    C181     C        0.86560    0.27620    0.47610    1.000
    O32      O        0.80680    0.30300    0.50690    1.000
    O33      O        0.75940    0.13320    0.40930    1.000
    C182     C        0.13350    0.27220    0.47910    1.000
    O34      O        0.70670    0.19470    0.50840    1.000
    O35      O        0.18770    0.69540    0.30030    1.000
    O36      O        0.20620    0.29990    0.29480    1.000
    O37      O        0.26780    0.36820    0.38690    1.000
    O38      O        0.26670    0.63390    0.37780    1.000
    O39      O        0.81750    0.44920    0.88700    1.000
    O40      O        0.98470    0.29950    0.91130    1.000
    C183     C        0.92200    0.18700    0.93000    1.000
    C184     C        0.87700    0.16100    0.99000    1.000
    C185     C        0.88200    0.08800    0.01300    1.000
    C186     C        0.93000    0.04000    0.97600    1.000
    C187     C        0.97500    0.06500    0.91600    1.000
    C188     C        0.97100    0.13900    0.89300    1.000
    C189     C        0.91800    0.26300    0.90800    1.000
    C190     C        0.69840    0.47080    0.93230    1.000
    C191     C        0.68700    0.53400    0.88710    1.000
    C192     C        0.63300    0.58500    0.90900    1.000
    C193     C        0.59200    0.57400    0.97700    1.000
    C194     C        0.60390    0.51100    0.02200    1.000
    C195     C        0.65700    0.45900    0.99980    1.000
    C196     C        0.75450    0.41500    0.91000    1.000
    C197     C        0.50000    0.00000    0.66530    1.000
    C198     C        0.00000    0.50000    0.66530    1.000
