# CIF file generated by openbabel 3.1.0, see https://openbabel.org
data_I
_chemical_name_common 'FIJFEK_clean5b'
_cell_length_a 10.2792
_cell_length_b 10.2792
_cell_length_c 14.5376
_cell_angle_alpha 90
_cell_angle_beta 90
_cell_angle_gamma 90
_space_group_name_H-M_alt 'P 1'
_space_group_name_Hall 'P 1'
loop_
    _symmetry_equiv_pos_as_xyz
    x,y,z
loop_
    _atom_site_label
    _atom_site_type_symbol
    _atom_site_fract_x
    _atom_site_fract_y
    _atom_site_fract_z
    _atom_site_occupancy
    Tb1      Tb       0.85129    0.85129    0.37500    1.000
    Tb2      Tb       0.14871    0.14871    0.87500    1.000
    Tb3      Tb       0.14871    0.85129    0.62500    1.000
    Tb4      Tb       0.85129    0.14871    0.12500    1.000
    H1       H        0.92670    0.43580    0.37170    1.000
    H2       H        0.07330    0.56420    0.87170    1.000
    H3       H        0.56420    0.92670    0.62170    1.000
    H4       H        0.43580    0.07330    0.12170    1.000
    H5       H        0.07330    0.43580    0.62830    1.000
    H6       H        0.92670    0.56420    0.12830    1.000
    H7       H        0.43580    0.92670    0.37830    1.000
    H8       H        0.56420    0.07330    0.87830    1.000
    H9       H        0.00000    0.10100    0.50000    1.000
    H10      H        0.00000    0.89900    0.00000    1.000
    H11      H        0.89900    0.00000    0.75000    1.000
    H12      H        0.10100    0.00000    0.25000    1.000
    C1       C        0.95950    0.39490    0.42310    1.000
    C2       C        0.95900    0.26100    0.42330    1.000
    C3       C        0.91430    0.18550    0.34020    1.000
    C4       C        0.04050    0.60510    0.92310    1.000
    C5       C        0.04100    0.73900    0.92330    1.000
    C6       C        0.08570    0.81450    0.84020    1.000
    C7       C        0.60510    0.95950    0.67310    1.000
    C8       C        0.73900    0.95900    0.67330    1.000
    C9       C        0.81450    0.91430    0.59020    1.000
    C10      C        0.39490    0.04050    0.17310    1.000
    C11      C        0.26100    0.04100    0.17330    1.000
    C12      C        0.18550    0.08570    0.09020    1.000
    C13      C        0.04050    0.39490    0.57690    1.000
    C14      C        0.04100    0.26100    0.57670    1.000
    C15      C        0.08570    0.18550    0.65980    1.000
    C16      C        0.95950    0.60510    0.07690    1.000
    C17      C        0.95900    0.73900    0.07670    1.000
    C18      C        0.91430    0.81450    0.15980    1.000
    C19      C        0.39490    0.95950    0.32690    1.000
    C20      C        0.26100    0.95900    0.32670    1.000
    C21      C        0.18550    0.91430    0.40980    1.000
    C22      C        0.60510    0.04050    0.82690    1.000
    C23      C        0.73900    0.04100    0.82670    1.000
    C24      C        0.81450    0.08570    0.90980    1.000
    C25      C        0.00000    0.46100    0.50000    1.000
    C26      C        0.00000    0.19400    0.50000    1.000
    C27      C        0.00000    0.60900    0.50000    1.000
    C28      C        0.00000    0.53900    0.00000    1.000
    C29      C        0.00000    0.80600    0.00000    1.000
    C30      C        0.00000    0.39100    0.00000    1.000
    C31      C        0.53900    0.00000    0.75000    1.000
    C32      C        0.80600    0.00000    0.75000    1.000
    C33      C        0.39100    0.00000    0.75000    1.000
    C34      C        0.46100    0.00000    0.25000    1.000
    C35      C        0.19400    0.00000    0.25000    1.000
    C36      C        0.60900    0.00000    0.25000    1.000
    O1       O        0.92910    0.66470    0.44180    1.000
    O2       O        0.88940    0.06910    0.34790    1.000
    O3       O        0.75620    0.90810    0.51470    1.000
    O4       O        0.07090    0.33530    0.94180    1.000
    O5       O        0.11060    0.93090    0.84790    1.000
    O6       O        0.24380    0.09190    0.01470    1.000
    O7       O        0.33530    0.92910    0.69180    1.000
    O8       O        0.93090    0.88940    0.59790    1.000
    O9       O        0.09190    0.75620    0.76470    1.000
    O10      O        0.66470    0.07090    0.19180    1.000
    O11      O        0.06910    0.11060    0.09790    1.000
    O12      O        0.90810    0.24380    0.26470    1.000
    O13      O        0.07090    0.66470    0.55820    1.000
    O14      O        0.11060    0.06910    0.65210    1.000
    O15      O        0.24380    0.90810    0.48530    1.000
    O16      O        0.92910    0.33530    0.05820    1.000
    O17      O        0.88940    0.93090    0.15210    1.000
    O18      O        0.75620    0.09190    0.98530    1.000
    O19      O        0.66470    0.92910    0.30820    1.000
    O20      O        0.06910    0.88940    0.40210    1.000
    O21      O        0.90810    0.75620    0.23530    1.000
    O22      O        0.33530    0.07090    0.80820    1.000
    O23      O        0.93090    0.11060    0.90210    1.000
    O24      O        0.09190    0.24380    0.73530    1.000
