# CIF file generated by openbabel 3.1.0, see https://openbabel.org
data_I
_chemical_name_common 'image0'
_cell_length_a 10.1661
_cell_length_b 21.4687
_cell_length_c 20.113
_cell_angle_alpha 90
_cell_angle_beta 97.091
_cell_angle_gamma 90
_space_group_name_H-M_alt 'P 1'
_space_group_name_Hall 'P 1'
loop_
    _symmetry_equiv_pos_as_xyz
    x,y,z
loop_
    _atom_site_label
    _atom_site_type_symbol
    _atom_site_fract_x
    _atom_site_fract_y
    _atom_site_fract_z
    _atom_site_occupancy
    K1       K        0.12642    0.13019    0.85712    1.000
    K2       K        0.63551    0.11240    0.84982    1.000
    K3       K        0.06432    0.41052    0.96627    1.000
    C1       C        0.15850    0.28206    0.74408    1.000
    N1       N        0.16730    0.23854    0.77706    1.000
    N2       N        0.18720    0.43359    0.84497    1.000
    C2       C        0.17260    0.41867    0.79005    1.000
    C3       C        0.13240    0.50144    0.66392    1.000
    N3       N        0.13280    0.55505    0.66513    1.000
    C4       C        0.09730    0.41402    0.53936    1.000
    N4       N        0.08690    0.42621    0.48383    1.000
    C5       C        0.10890    0.27880    0.59177    1.000
    N5       N        0.09810    0.23329    0.56161    1.000
    C6       C        0.14570    0.33526    0.70170    1.000
    C7       C        0.15220    0.39808    0.72239    1.000
    C8       C        0.13270    0.43540    0.66429    1.000
    C9       C        0.11470    0.39574    0.60806    1.000
    C10      C        0.12260    0.33399    0.63140    1.000
    C11      C        0.93230    0.27247    0.05804    1.000
    N6       N        0.92520    0.31780    0.02796    1.000
    C12      C        0.90180    0.14212    0.99723    1.000
    N7       N        0.87950    0.13233    0.94116    1.000
    C13      C        0.94140    0.04604    0.11410    1.000
    N8       N        0.93330    0.99322    0.11255    1.000
    C14      C        0.00110    0.11909    0.24504    1.000
    N9       N        0.02320    0.09840    0.29750    1.000
    C15      C        0.99560    0.25839    0.21221    1.000
    N10      N        0.01700    0.29719    0.25111    1.000
    C16      C        0.94270    0.21577    0.09487    1.000
    C17      C        0.97440    0.14551    0.17965    1.000
    C18      C        0.92960    0.15572    0.06674    1.000
    C19      C        0.94890    0.11215    0.11950    1.000
    C20      C        0.97090    0.20941    0.16461    1.000
    C21      C        0.27290    0.29181    0.09864    1.000
    N11      N        0.25320    0.33473    0.06491    1.000
    N12      N        0.22410    0.14337    0.99325    1.000
    C22      C        0.25030    0.15713    0.04800    1.000
    N13      N        0.29660    0.01632    0.16760    1.000
    C23      C        0.29930    0.06978    0.16997    1.000
    C24      C        0.35850    0.15053    0.29645    1.000
    N14      N        0.38560    0.13156    0.34958    1.000
    N15      N        0.36010    0.33291    0.28403    1.000
    C25      C        0.34300    0.28932    0.25141    1.000
    C26      C        0.29350    0.23756    0.13912    1.000
    C27      C        0.28140    0.17562    0.11622    1.000
    C28      C        0.30290    0.13608    0.17188    1.000
    C29      C        0.32820    0.17326    0.22968    1.000
    C30      C        0.32280    0.23584    0.20933    1.000
    N16      N        0.27960    0.52463    0.00680    1.000
    O1       O        0.32880    0.47304    0.00538    1.000
    O2       O        0.16220    0.53454    0.98820    1.000
    C31      C        0.36390    0.57793    0.03230    1.000
    H1       H        0.34640    0.58820    0.07790    1.000
    H2       H        0.34350    0.61410    0.00310    1.000
    H3       H        0.45750    0.56670    0.03280    1.000
    N17      N        0.48860    0.24480    0.90270    1.000
    O3       O        0.60190    0.25505    0.89480    1.000
    O4       O        0.43690    0.19370    0.89690    1.000
    C32      C        0.40730    0.29860    0.91640    1.000
    H4       H        0.42170    0.33250    0.88540    1.000
    H5       H        0.43240    0.31260    0.96260    1.000
    H6       H        0.31350    0.28670    0.91030    1.000
    N18      N        0.31250    0.26600    0.91080    1.000
    O5       O        0.35290    0.21480    0.89600    1.000
    O6       O        0.19580    0.27690    0.91530    1.000
    C33      C        0.40830    0.31410    0.92130    1.000
    H7       H        0.44310    0.32340    0.87900    1.000
    H8       H        0.48100    0.30070    0.95480    1.000
    H9       H        0.36710    0.35160    0.93730    1.000
    K4       K        0.37358    0.63019    0.64288    1.000
    K5       K        0.86449    0.61240    0.65018    1.000
    K6       K        0.43568    0.91052    0.53373    1.000
    C34      C        0.34150    0.78206    0.75592    1.000
    N19      N        0.33270    0.73854    0.72294    1.000
    N20      N        0.31280    0.93359    0.65503    1.000
    C35      C        0.32740    0.91867    0.70995    1.000
    C36      C        0.36760    0.00144    0.83608    1.000
    N21      N        0.36720    0.05505    0.83487    1.000
    C37      C        0.40270    0.91402    0.96064    1.000
    N22      N        0.41310    0.92621    0.01617    1.000
    C38      C        0.39110    0.77880    0.90823    1.000
    N23      N        0.40190    0.73329    0.93839    1.000
    C39      C        0.35430    0.83526    0.79830    1.000
    C40      C        0.34780    0.89808    0.77761    1.000
    C41      C        0.36730    0.93540    0.83571    1.000
    C42      C        0.38530    0.89574    0.89194    1.000
    C43      C        0.37740    0.83399    0.86860    1.000
    C44      C        0.56770    0.77247    0.44196    1.000
    N24      N        0.57480    0.81780    0.47204    1.000
    C45      C        0.59820    0.64212    0.50277    1.000
    N25      N        0.62050    0.63233    0.55884    1.000
    C46      C        0.55860    0.54604    0.38590    1.000
    N26      N        0.56670    0.49322    0.38745    1.000
    C47      C        0.49890    0.61909    0.25496    1.000
    N27      N        0.47680    0.59840    0.20250    1.000
    C48      C        0.50440    0.75839    0.28779    1.000
    N28      N        0.48300    0.79719    0.24889    1.000
    C49      C        0.55730    0.71577    0.40513    1.000
    C50      C        0.52560    0.64551    0.32035    1.000
    C51      C        0.57040    0.65572    0.43326    1.000
    C52      C        0.55110    0.61215    0.38050    1.000
    C53      C        0.52910    0.70941    0.33539    1.000
    C54      C        0.22710    0.79181    0.40136    1.000
    N29      N        0.24680    0.83473    0.43509    1.000
    N30      N        0.27590    0.64337    0.50675    1.000
    C55      C        0.24970    0.65713    0.45200    1.000
    N31      N        0.20340    0.51632    0.33240    1.000
    C56      C        0.20070    0.56978    0.33003    1.000
    C57      C        0.14150    0.65053    0.20355    1.000
    N32      N        0.11440    0.63156    0.15042    1.000
    N33      N        0.13990    0.83291    0.21597    1.000
    C58      C        0.15700    0.78932    0.24859    1.000
    C59      C        0.20650    0.73756    0.36088    1.000
    C60      C        0.21860    0.67562    0.38378    1.000
    C61      C        0.19710    0.63608    0.32812    1.000
    C62      C        0.17180    0.67326    0.27032    1.000
    C63      C        0.17720    0.73584    0.29067    1.000
    N34      N        0.22040    0.02463    0.49320    1.000
    O7       O        0.17120    0.97304    0.49462    1.000
    O8       O        0.33780    0.03454    0.51180    1.000
    C64      C        0.13610    0.07793    0.46770    1.000
    H10      H        0.15360    0.08820    0.42210    1.000
    H11      H        0.15650    0.11410    0.49690    1.000
    H12      H        0.04250    0.06670    0.46720    1.000
    N35      N        0.01140    0.74480    0.59730    1.000
    O9       O        0.89810    0.75505    0.60520    1.000
    O10      O        0.06310    0.69370    0.60310    1.000
    C65      C        0.09270    0.79860    0.58360    1.000
    H13      H        0.07830    0.83250    0.61460    1.000
    H14      H        0.06760    0.81260    0.53740    1.000
    H15      H        0.18650    0.78670    0.58970    1.000
    N36      N        0.18750    0.76600    0.58920    1.000
    O11      O        0.14710    0.71480    0.60400    1.000
    O12      O        0.30420    0.77690    0.58470    1.000
    C66      C        0.09170    0.81410    0.57870    1.000
    H16      H        0.05690    0.82340    0.62100    1.000
    H17      H        0.01900    0.80070    0.54520    1.000
    H18      H        0.13290    0.85160    0.56270    1.000
    K7       K        0.87358    0.86981    0.14288    1.000
    K8       K        0.36449    0.88760    0.15018    1.000
    K9       K        0.93568    0.58948    0.03373    1.000
    C67      C        0.84150    0.71794    0.25592    1.000
    N37      N        0.83270    0.76146    0.22294    1.000
    N38      N        0.81280    0.56641    0.15503    1.000
    C68      C        0.82740    0.58133    0.20995    1.000
    C69      C        0.86760    0.49856    0.33608    1.000
    N39      N        0.86720    0.44495    0.33487    1.000
    C70      C        0.90270    0.58598    0.46064    1.000
    N40      N        0.91310    0.57379    0.51617    1.000
    C71      C        0.89110    0.72120    0.40823    1.000
    N41      N        0.90190    0.76671    0.43839    1.000
    C72      C        0.85430    0.66474    0.29830    1.000
    C73      C        0.84780    0.60192    0.27761    1.000
    C74      C        0.86730    0.56460    0.33571    1.000
    C75      C        0.88530    0.60426    0.39194    1.000
    C76      C        0.87740    0.66601    0.36860    1.000
    C77      C        0.06770    0.72753    0.94196    1.000
    N42      N        0.07480    0.68220    0.97204    1.000
    C78      C        0.09820    0.85788    0.00277    1.000
    N43      N        0.12050    0.86767    0.05884    1.000
    C79      C        0.05860    0.95396    0.88590    1.000
    N44      N        0.06670    0.00678    0.88745    1.000
    C80      C        0.99890    0.88091    0.75496    1.000
    N45      N        0.97680    0.90160    0.70250    1.000
    C81      C        0.00440    0.74161    0.78779    1.000
    N46      N        0.98300    0.70281    0.74889    1.000
    C82      C        0.05730    0.78423    0.90513    1.000
    C83      C        0.02560    0.85449    0.82035    1.000
    C84      C        0.07040    0.84428    0.93326    1.000
    C85      C        0.05110    0.88785    0.88050    1.000
    C86      C        0.02910    0.79059    0.83539    1.000
    C87      C        0.72710    0.70819    0.90136    1.000
    N47      N        0.74680    0.66527    0.93509    1.000
    N48      N        0.77590    0.85663    0.00675    1.000
    C88      C        0.74970    0.84287    0.95200    1.000
    N49      N        0.70340    0.98368    0.83240    1.000
    C89      C        0.70070    0.93022    0.83003    1.000
    C90      C        0.64150    0.84947    0.70355    1.000
    N50      N        0.61440    0.86844    0.65042    1.000
    N51      N        0.63990    0.66709    0.71597    1.000
    C91      C        0.65700    0.71068    0.74859    1.000
    C92      C        0.70650    0.76244    0.86088    1.000
    C93      C        0.71860    0.82438    0.88378    1.000
    C94      C        0.69710    0.86392    0.82812    1.000
    C95      C        0.67180    0.82674    0.77032    1.000
    C96      C        0.67720    0.76416    0.79067    1.000
    N52      N        0.72040    0.47537    0.99320    1.000
    O13      O        0.67120    0.52696    0.99462    1.000
    O14      O        0.83780    0.46546    0.01180    1.000
    C97      C        0.63610    0.42207    0.96770    1.000
    H19      H        0.65360    0.41180    0.92210    1.000
    H20      H        0.65650    0.38590    0.99690    1.000
    H21      H        0.54250    0.43330    0.96720    1.000
    N53      N        0.51140    0.75520    0.09730    1.000
    O15      O        0.39810    0.74495    0.10520    1.000
    O16      O        0.56310    0.80630    0.10310    1.000
    C98      C        0.59270    0.70140    0.08360    1.000
    H22      H        0.57830    0.66750    0.11460    1.000
    H23      H        0.56760    0.68740    0.03740    1.000
    H24      H        0.68650    0.71330    0.08970    1.000
    N54      N        0.68750    0.73400    0.08920    1.000
    O17      O        0.64710    0.78520    0.10400    1.000
    O18      O        0.80420    0.72310    0.08470    1.000
    C99      C        0.59170    0.68590    0.07870    1.000
    H25      H        0.55690    0.67660    0.12100    1.000
    H26      H        0.51900    0.69930    0.04520    1.000
    H27      H        0.63290    0.64840    0.06270    1.000
    K10      K        0.62642    0.36981    0.35712    1.000
    K11      K        0.13551    0.38760    0.34982    1.000
    K12      K        0.56432    0.08948    0.46627    1.000
    C100     C        0.65850    0.21794    0.24408    1.000
    N55      N        0.66730    0.26146    0.27706    1.000
    N56      N        0.68720    0.06641    0.34497    1.000
    C101     C        0.67260    0.08133    0.29005    1.000
    C102     C        0.63240    0.99856    0.16392    1.000
    N57      N        0.63280    0.94495    0.16513    1.000
    C103     C        0.59730    0.08598    0.03936    1.000
    N58      N        0.58690    0.07379    0.98383    1.000
    C104     C        0.60890    0.22120    0.09177    1.000
    N59      N        0.59810    0.26671    0.06161    1.000
    C105     C        0.64570    0.16474    0.20170    1.000
    C106     C        0.65220    0.10192    0.22239    1.000
    C107     C        0.63270    0.06460    0.16429    1.000
    C108     C        0.61470    0.10426    0.10806    1.000
    C109     C        0.62260    0.16601    0.13140    1.000
    C110     C        0.43230    0.22753    0.55804    1.000
    N60      N        0.42520    0.18220    0.52796    1.000
    C111     C        0.40180    0.35788    0.49723    1.000
    N61      N        0.37950    0.36767    0.44116    1.000
    C112     C        0.44140    0.45396    0.61410    1.000
    N62      N        0.43330    0.50678    0.61255    1.000
    C113     C        0.50110    0.38091    0.74504    1.000
    N63      N        0.52320    0.40160    0.79750    1.000
    C114     C        0.49560    0.24161    0.71221    1.000
    N64      N        0.51700    0.20281    0.75111    1.000
    C115     C        0.44270    0.28423    0.59487    1.000
    C116     C        0.47440    0.35449    0.67965    1.000
    C117     C        0.42960    0.34428    0.56674    1.000
    C118     C        0.44890    0.38785    0.61950    1.000
    C119     C        0.47090    0.29059    0.66461    1.000
    C120     C        0.77290    0.20819    0.59864    1.000
    N65      N        0.75320    0.16527    0.56491    1.000
    N66      N        0.72410    0.35663    0.49325    1.000
    C121     C        0.75030    0.34287    0.54800    1.000
    N67      N        0.79660    0.48368    0.66760    1.000
    C122     C        0.79930    0.43022    0.66997    1.000
    C123     C        0.85850    0.34947    0.79645    1.000
    N68      N        0.88560    0.36844    0.84958    1.000
    N69      N        0.86010    0.16709    0.78403    1.000
    C124     C        0.84300    0.21068    0.75141    1.000
    C125     C        0.79350    0.26244    0.63912    1.000
    C126     C        0.78140    0.32438    0.61622    1.000
    C127     C        0.80290    0.36392    0.67188    1.000
    C128     C        0.82820    0.32674    0.72968    1.000
    C129     C        0.82280    0.26416    0.70933    1.000
    N70      N        0.77960    0.97537    0.50680    1.000
    O19      O        0.82880    0.02696    0.50538    1.000
    O20      O        0.66220    0.96546    0.48820    1.000
    C130     C        0.86390    0.92207    0.53230    1.000
    H28      H        0.84640    0.91180    0.57790    1.000
    H29      H        0.84350    0.88590    0.50310    1.000
    H30      H        0.95750    0.93330    0.53280    1.000
    N71      N        0.98860    0.25520    0.40270    1.000
    O21      O        0.10190    0.24495    0.39480    1.000
    O22      O        0.93690    0.30630    0.39690    1.000
    C131     C        0.90730    0.20140    0.41640    1.000
    H31      H        0.92170    0.16750    0.38540    1.000
    H32      H        0.93240    0.18740    0.46260    1.000
    H33      H        0.81350    0.21330    0.41030    1.000
    N72      N        0.81250    0.23400    0.41080    1.000
    O23      O        0.85290    0.28520    0.39600    1.000
    O24      O        0.69580    0.22310    0.41530    1.000
    C132     C        0.90830    0.18590    0.42130    1.000
    H34      H        0.94310    0.17660    0.37900    1.000
    H35      H        0.98100    0.19930    0.45480    1.000
    H36      H        0.86710    0.14840    0.43730    1.000
