# CIF file generated by openbabel 3.1.0, see https://openbabel.org
data_I
_chemical_name_common 'image0'
_cell_length_a 13.3422
_cell_length_b 13.3422
_cell_length_c 17.8687
_cell_angle_alpha 90
_cell_angle_beta 90
_cell_angle_gamma 120
_space_group_name_H-M_alt 'P 1'
_space_group_name_Hall 'P 1'
loop_
    _symmetry_equiv_pos_as_xyz
    x,y,z
loop_
    _atom_site_label
    _atom_site_type_symbol
    _atom_site_fract_x
    _atom_site_fract_y
    _atom_site_fract_z
    _atom_site_occupancy
    Ga1      Ga       0.85958    0.56737    0.46033    1.000
    P1       P        0.97456    0.81342    0.37109    1.000
    H1       H        0.03670    0.80610    0.34720    1.000
    P2       P        0.87253    0.36784    0.55354    1.000
    H2       H        0.82970    0.32380    0.59780    1.000
    O1       O        0.92550    0.85980    0.31110    1.000
    O2       O        0.02850    0.89340    0.43870    1.000
    O3       O        0.83030    0.45190    0.53610    1.000
    O4       O        0.71980    0.56740    0.49170    1.000
    O5       O        0.00050    0.57260    0.42640    1.000
    O6       O        0.77490    0.45060    0.38260    1.000
    O7       O        0.88110    0.69210    0.39230    1.000
    Ga2      Ga       0.43263    0.29221    0.46033    1.000
    P3       P        0.18658    0.16114    0.37109    1.000
    H3       H        0.19390    0.23060    0.34720    1.000
    P4       P        0.63216    0.50469    0.55354    1.000
    H4       H        0.67620    0.50590    0.59780    1.000
    O8       O        0.14020    0.06570    0.31110    1.000
    O9       O        0.10660    0.13510    0.43870    1.000
    O10      O        0.54810    0.37840    0.53610    1.000
    O11      O        0.43260    0.15240    0.49170    1.000
    O12      O        0.42740    0.42790    0.42640    1.000
    O13      O        0.54940    0.32430    0.38260    1.000
    O14      O        0.30790    0.18900    0.39230    1.000
    Ga3      Ga       0.70779    0.14042    0.46033    1.000
    P5       P        0.83886    0.02544    0.37109    1.000
    H5       H        0.76940    0.96330    0.34720    1.000
    P6       P        0.49531    0.12747    0.55354    1.000
    H6       H        0.49410    0.17030    0.59780    1.000
    O15      O        0.93430    0.07450    0.31110    1.000
    O16      O        0.86490    0.97150    0.43870    1.000
    O17      O        0.62160    0.16970    0.53610    1.000
    O18      O        0.84760    0.28020    0.49170    1.000
    O19      O        0.57210    0.99950    0.42640    1.000
    O20      O        0.67570    0.22510    0.38260    1.000
    O21      O        0.81100    0.11890    0.39230    1.000
    Ga4      Ga       0.56737    0.85958    0.03967    1.000
    P7       P        0.81342    0.97456    0.12891    1.000
    H7       H        0.80610    0.03670    0.15280    1.000
    P8       P        0.36784    0.87253    0.94646    1.000
    H8       H        0.32380    0.82970    0.90220    1.000
    O22      O        0.85980    0.92550    0.18890    1.000
    O23      O        0.89340    0.02850    0.06130    1.000
    O24      O        0.45190    0.83030    0.96390    1.000
    O25      O        0.56740    0.71980    0.00830    1.000
    O26      O        0.57260    0.00050    0.07360    1.000
    O27      O        0.45060    0.77490    0.11740    1.000
    O28      O        0.69210    0.88110    0.10770    1.000
    Ga5      Ga       0.29221    0.43263    0.03967    1.000
    P9       P        0.16114    0.18658    0.12891    1.000
    H9       H        0.23060    0.19390    0.15280    1.000
    P10      P        0.50469    0.63216    0.94646    1.000
    H10      H        0.50590    0.67620    0.90220    1.000
    O29      O        0.06570    0.14020    0.18890    1.000
    O30      O        0.13510    0.10660    0.06130    1.000
    O31      O        0.37840    0.54810    0.96390    1.000
    O32      O        0.15240    0.43260    0.00830    1.000
    O33      O        0.42790    0.42740    0.07360    1.000
    O34      O        0.32430    0.54940    0.11740    1.000
    O35      O        0.18900    0.30790    0.10770    1.000
    Ga6      Ga       0.14042    0.70779    0.03967    1.000
    P11      P        0.02544    0.83886    0.12891    1.000
    H11      H        0.96330    0.76940    0.15280    1.000
    P12      P        0.12747    0.49531    0.94646    1.000
    H12      H        0.17030    0.49410    0.90220    1.000
    O36      O        0.07450    0.93430    0.18890    1.000
    O37      O        0.97150    0.86490    0.06130    1.000
    O38      O        0.16970    0.62160    0.96390    1.000
    O39      O        0.28020    0.84760    0.00830    1.000
    O40      O        0.99950    0.57210    0.07360    1.000
    O41      O        0.22510    0.67570    0.11740    1.000
    O42      O        0.11890    0.81100    0.10770    1.000
    Ga7      Ga       0.14042    0.43263    0.53967    1.000
    P13      P        0.02544    0.18658    0.62891    1.000
    H13      H        0.96330    0.19390    0.65280    1.000
    P14      P        0.12747    0.63216    0.44646    1.000
    H14      H        0.17030    0.67620    0.40220    1.000
    O43      O        0.07450    0.14020    0.68890    1.000
    O44      O        0.97150    0.10660    0.56130    1.000
    O45      O        0.16970    0.54810    0.46390    1.000
    O46      O        0.28020    0.43260    0.50830    1.000
    O47      O        0.99950    0.42740    0.57360    1.000
    O48      O        0.22510    0.54940    0.61740    1.000
    O49      O        0.11890    0.30790    0.60770    1.000
    Ga8      Ga       0.56737    0.70779    0.53967    1.000
    P15      P        0.81342    0.83886    0.62891    1.000
    H15      H        0.80610    0.76940    0.65280    1.000
    P16      P        0.36784    0.49531    0.44646    1.000
    H16      H        0.32380    0.49410    0.40220    1.000
    O50      O        0.85980    0.93430    0.68890    1.000
    O51      O        0.89340    0.86490    0.56130    1.000
    O52      O        0.45190    0.62160    0.46390    1.000
    O53      O        0.56740    0.84760    0.50830    1.000
    O54      O        0.57260    0.57210    0.57360    1.000
    O55      O        0.45060    0.67570    0.61740    1.000
    O56      O        0.69210    0.81100    0.60770    1.000
    Ga9      Ga       0.29221    0.85958    0.53967    1.000
    P17      P        0.16114    0.97456    0.62891    1.000
    H17      H        0.23060    0.03670    0.65280    1.000
    P18      P        0.50469    0.87253    0.44646    1.000
    H18      H        0.50590    0.82970    0.40220    1.000
    O57      O        0.06570    0.92550    0.68890    1.000
    O58      O        0.13510    0.02850    0.56130    1.000
    O59      O        0.37840    0.83030    0.46390    1.000
    O60      O        0.15240    0.71980    0.50830    1.000
    O61      O        0.42790    0.00050    0.57360    1.000
    O62      O        0.32430    0.77490    0.61740    1.000
    O63      O        0.18900    0.88110    0.60770    1.000
    Ga10     Ga       0.43263    0.14042    0.96033    1.000
    P19      P        0.18658    0.02544    0.87109    1.000
    H19      H        0.19390    0.96330    0.84720    1.000
    P20      P        0.63216    0.12747    0.05354    1.000
    H20      H        0.67620    0.17030    0.09780    1.000
    O64      O        0.14020    0.07450    0.81110    1.000
    O65      O        0.10660    0.97150    0.93870    1.000
    O66      O        0.54810    0.16970    0.03610    1.000
    O67      O        0.43260    0.28020    0.99170    1.000
    O68      O        0.42740    0.99950    0.92640    1.000
    O69      O        0.54940    0.22510    0.88260    1.000
    O70      O        0.30790    0.11890    0.89230    1.000
    Ga11     Ga       0.70779    0.56737    0.96033    1.000
    P21      P        0.83886    0.81342    0.87109    1.000
    H21      H        0.76940    0.80610    0.84720    1.000
    P22      P        0.49531    0.36784    0.05354    1.000
    H22      H        0.49410    0.32380    0.09780    1.000
    O71      O        0.93430    0.85980    0.81110    1.000
    O72      O        0.86490    0.89340    0.93870    1.000
    O73      O        0.62160    0.45190    0.03610    1.000
    O74      O        0.84760    0.56740    0.99170    1.000
    O75      O        0.57210    0.57260    0.92640    1.000
    O76      O        0.67570    0.45060    0.88260    1.000
    O77      O        0.81100    0.69210    0.89230    1.000
    Ga12     Ga       0.85958    0.29221    0.96033    1.000
    P23      P        0.97456    0.16114    0.87109    1.000
    H23      H        0.03670    0.23060    0.84720    1.000
    P24      P        0.87253    0.50469    0.05354    1.000
    H24      H        0.82970    0.50590    0.09780    1.000
    O78      O        0.92550    0.06570    0.81110    1.000
    O79      O        0.02850    0.13510    0.93870    1.000
    O80      O        0.83030    0.37840    0.03610    1.000
    O81      O        0.71980    0.15240    0.99170    1.000
    O82      O        0.00050    0.42790    0.92640    1.000
    O83      O        0.77490    0.32430    0.88260    1.000
    O84      O        0.88110    0.18900    0.89230    1.000
    Ga13     Ga       0.00000    0.00000    0.25000    1.000
    Ga14     Ga       0.00000    0.00000    0.75000    1.000
    Ga15     Ga       0.00000    0.00000    0.50000    1.000
    Ga16     Ga       0.00000    0.00000    0.00000    1.000
    P25      P        0.66667    0.33333    0.36290    1.000
    H25      H        0.66667    0.33333    0.30810    1.000
    P26      P        0.33333    0.66667    0.13710    1.000
    H26      H        0.33333    0.66667    0.19190    1.000
    P27      P        0.33333    0.66667    0.63710    1.000
    H27      H        0.33333    0.66667    0.69190    1.000
    P28      P        0.66667    0.33333    0.86290    1.000
    H28      H        0.66667    0.33333    0.80810    1.000
