# CIF file generated by openbabel 3.1.0, see https://openbabel.org
data_I
_chemical_name_common 'image0'
_cell_length_a 7.07
_cell_length_b 12.356
_cell_length_c 17.12
_cell_angle_alpha 75.698
_cell_angle_beta 85.651
_cell_angle_gamma 78.331
_space_group_name_H-M_alt 'P 1'
_space_group_name_Hall 'P 1'
loop_
    _symmetry_equiv_pos_as_xyz
    x,y,z
loop_
    _atom_site_label
    _atom_site_type_symbol
    _atom_site_fract_x
    _atom_site_fract_y
    _atom_site_fract_z
    _atom_site_occupancy
    Mn1      Mn       0.25068    0.75016    0.74994    1.000
    V1       V        0.46908    0.70373    0.57271    1.000
    V2       V        0.03136    0.79622    0.92755    1.000
    V3       V        0.26650    0.24707    0.75288    1.000
    V4       V        0.76552    0.25317    0.74768    1.000
    P1       P        0.06603    0.01489    0.78355    1.000
    O1       O        0.13040    0.93080    0.73040    1.000
    O2       O        0.21450    0.08970    0.78270    1.000
    O3       O        0.03140    0.95000    0.87230    1.000
    O4       O        0.87120    0.09010    0.75280    1.000
    P2       P        0.48633    0.73958    0.41183    1.000
    P3       P        0.43458    0.48505    0.71645    1.000
    P4       P        0.01490    0.76094    0.08847    1.000
    O5       O        0.65460    0.77440    0.35730    1.000
    O6       O        0.32070    0.73040    0.36390    1.000
    O7       O        0.54430    0.62800    0.47750    1.000
    O8       O        0.41070    0.82070    0.46860    1.000
    O9       O        0.28620    0.40960    0.71810    1.000
    O10      O        0.62940    0.41020    0.74710    1.000
    O11      O        0.46530    0.54950    0.62790    1.000
    O12      O        0.36890    0.56970    0.76920    1.000
    O13      O        0.18210    0.76930    0.13780    1.000
    O14      O        0.09440    0.67930    0.03190    1.000
    O15      O        0.95700    0.87150    0.02248    1.000
    O16      O        0.84670    0.72520    0.14170    1.000
    O17      O        0.51240    0.20500    0.78740    1.000
    O18      O        0.28450    0.76330    0.62270    1.000
    O19      O        0.99370    0.29540    0.71330    1.000
    O20      O        0.21700    0.73740    0.87730    1.000
    Mn2      Mn       0.74932    0.24984    0.25006    1.000
    V5       V        0.53092    0.29627    0.42729    1.000
    V6       V        0.96864    0.20378    0.07245    1.000
    V7       V        0.73350    0.75293    0.24712    1.000
    V8       V        0.23448    0.74683    0.25232    1.000
    P5       P        0.93397    0.98511    0.21645    1.000
    O21      O        0.86960    0.06920    0.26960    1.000
    O22      O        0.78550    0.91030    0.21730    1.000
    O23      O        0.96860    0.05000    0.12770    1.000
    O24      O        0.12880    0.90990    0.24720    1.000
    P6       P        0.51367    0.26042    0.58817    1.000
    P7       P        0.56542    0.51495    0.28355    1.000
    P8       P        0.98510    0.23906    0.91153    1.000
    O25      O        0.34540    0.22560    0.64270    1.000
    O26      O        0.67930    0.26960    0.63610    1.000
    O27      O        0.45570    0.37200    0.52250    1.000
    O28      O        0.58930    0.17930    0.53140    1.000
    O29      O        0.71380    0.59040    0.28190    1.000
    O30      O        0.37060    0.58980    0.25290    1.000
    O31      O        0.53470    0.45050    0.37210    1.000
    O32      O        0.63110    0.43030    0.23080    1.000
    O33      O        0.81790    0.23070    0.86220    1.000
    O34      O        0.90560    0.32070    0.96810    1.000
    O35      O        0.04300    0.12850    0.97752    1.000
    O36      O        0.15330    0.27480    0.85830    1.000
    O37      O        0.48760    0.79500    0.21260    1.000
    O38      O        0.71550    0.23670    0.37730    1.000
    O39      O        0.00630    0.70460    0.28670    1.000
    O40      O        0.78300    0.26260    0.12270    1.000
