# CIF file generated by openbabel 3.1.0, see https://openbabel.org
data_I
_chemical_name_common 'image0'
_cell_length_a 19.3064
_cell_length_b 17.452
_cell_length_c 24.0043
_cell_angle_alpha 90
_cell_angle_beta 90
_cell_angle_gamma 90
_space_group_name_H-M_alt 'P 1'
_space_group_name_Hall 'P 1'
loop_
    _symmetry_equiv_pos_as_xyz
    x,y,z
loop_
    _atom_site_label
    _atom_site_type_symbol
    _atom_site_fract_x
    _atom_site_fract_y
    _atom_site_fract_z
    _atom_site_occupancy
    C1       C        0.52090    0.66270    0.32860    1.000
    H1       H        0.53300    0.64640    0.36610    1.000
    C2       C        0.53760    0.61350    0.28510    1.000
    H2       H        0.55400    0.56200    0.29180    1.000
    C3       C        0.53520    0.63940    0.23040    1.000
    H3       H        0.54140    0.60460    0.19950    1.000
    C4       C        0.51590    0.71460    0.21910    1.000
    H4       H        0.50560    0.73100    0.18160    1.000
    C5       C        0.63740    0.72220    0.57090    1.000
    C6       C        0.69120    0.78220    0.57050    1.000
    C7       C        0.75930    0.75860    0.56820    1.000
    H5       H        0.76860    0.70630    0.56790    1.000
    C8       C        0.67890    0.86160    0.56980    1.000
    C9       C        0.60680    0.89660    0.55460    1.000
    H6       H        0.56930    0.86570    0.54530    1.000
    C10      C        0.60120    0.97710    0.55550    1.000
    H7       H        0.55730    0.99850    0.55900    1.000
    C11      C        0.81500    0.80970    0.56630    1.000
    H8       H        0.86020    0.79160    0.56410    1.000
    C12      C        0.73520    0.91520    0.56970    1.000
    C13      C        0.71920    0.99980    0.55450    1.000
    H9       H        0.75570    0.03320    0.54750    1.000
    C14      C        0.65610    0.02480    0.55140    1.000
    H10      H        0.64840    0.07700    0.54630    1.000
    C15      C        0.80220    0.88670    0.56770    1.000
    C16      C        0.86470    0.93940    0.56840    1.000
    O1       O        0.65400    0.65860    0.59080    1.000
    O2       O        0.57910    0.73790    0.55290    1.000
    O3       O        0.91070    0.93040    0.53360    1.000
    O4       O        0.86550    0.98880    0.60650    1.000
    O5       O        0.44460    0.89570    0.17920    1.000
    Zn1      Zn       0.58104    0.58078    0.60036    1.000
    C17      C        0.61330    0.89180    0.58350    1.000
    H11      H        0.57470    0.85990    0.58290    1.000
    C18      C        0.60560    0.96350    0.59710    1.000
    H12      H        0.56360    0.97920    0.61220    1.000
    C19      C        0.72100    0.99330    0.58160    1.000
    H13      H        0.75760    0.02790    0.58340    1.000
    C20      C        0.65780    0.01790    0.59010    1.000
    H14      H        0.64800    0.07000    0.59130    1.000
    C21      C        0.02090    0.16270    0.32860    1.000
    H15      H        0.03300    0.14640    0.36610    1.000
    C22      C        0.03760    0.11350    0.28510    1.000
    H16      H        0.05400    0.06200    0.29180    1.000
    C23      C        0.03520    0.13940    0.23040    1.000
    H17      H        0.04140    0.10460    0.19950    1.000
    C24      C        0.01590    0.21460    0.21910    1.000
    H18      H        0.00560    0.23100    0.18160    1.000
    C25      C        0.13740    0.22220    0.57090    1.000
    C26      C        0.19120    0.28220    0.57050    1.000
    C27      C        0.25930    0.25860    0.56820    1.000
    H19      H        0.26860    0.20630    0.56790    1.000
    C28      C        0.17890    0.36160    0.56980    1.000
    C29      C        0.10680    0.39660    0.55460    1.000
    H20      H        0.06930    0.36570    0.54530    1.000
    C30      C        0.10120    0.47710    0.55550    1.000
    H21      H        0.05730    0.49850    0.55900    1.000
    C31      C        0.31500    0.30970    0.56630    1.000
    H22      H        0.36020    0.29160    0.56410    1.000
    C32      C        0.23520    0.41520    0.56970    1.000
    C33      C        0.21920    0.49980    0.55450    1.000
    H23      H        0.25570    0.53320    0.54750    1.000
    C34      C        0.15610    0.52480    0.55140    1.000
    H24      H        0.14840    0.57700    0.54630    1.000
    C35      C        0.30220    0.38670    0.56770    1.000
    C36      C        0.36470    0.43940    0.56840    1.000
    O6       O        0.15400    0.15860    0.59080    1.000
    O7       O        0.07910    0.23790    0.55290    1.000
    O8       O        0.41070    0.43040    0.53360    1.000
    O9       O        0.36550    0.48880    0.60650    1.000
    O10      O        0.94460    0.39570    0.17920    1.000
    Zn2      Zn       0.08104    0.08078    0.60036    1.000
    C37      C        0.11330    0.39180    0.58350    1.000
    H25      H        0.07470    0.35990    0.58290    1.000
    C38      C        0.10560    0.46350    0.59710    1.000
    H26      H        0.06360    0.47920    0.61220    1.000
    C39      C        0.22100    0.49330    0.58160    1.000
    H27      H        0.25760    0.52790    0.58340    1.000
    C40      C        0.15780    0.51790    0.59010    1.000
    H28      H        0.14800    0.57000    0.59130    1.000
    C41      C        0.47910    0.83730    0.82860    1.000
    H29      H        0.46700    0.85360    0.86610    1.000
    C42      C        0.46240    0.88650    0.78510    1.000
    H30      H        0.44600    0.93800    0.79180    1.000
    C43      C        0.46480    0.86060    0.73040    1.000
    H31      H        0.45860    0.89540    0.69950    1.000
    C44      C        0.48410    0.78540    0.71910    1.000
    H32      H        0.49440    0.76900    0.68160    1.000
    C45      C        0.36260    0.77780    0.07090    1.000
    C46      C        0.30880    0.71780    0.07050    1.000
    C47      C        0.24070    0.74140    0.06820    1.000
    H33      H        0.23140    0.79370    0.06790    1.000
    C48      C        0.32110    0.63840    0.06980    1.000
    C49      C        0.39320    0.60340    0.05460    1.000
    H34      H        0.43070    0.63430    0.04530    1.000
    C50      C        0.39880    0.52290    0.05550    1.000
    H35      H        0.44270    0.50150    0.05900    1.000
    C51      C        0.18500    0.69030    0.06630    1.000
    H36      H        0.13980    0.70840    0.06410    1.000
    C52      C        0.26480    0.58480    0.06970    1.000
    C53      C        0.28080    0.50020    0.05450    1.000
    H37      H        0.24430    0.46680    0.04750    1.000
    C54      C        0.34390    0.47520    0.05140    1.000
    H38      H        0.35160    0.42300    0.04630    1.000
    C55      C        0.19780    0.61330    0.06770    1.000
    C56      C        0.13530    0.56060    0.06840    1.000
    O11      O        0.34600    0.84140    0.09080    1.000
    O12      O        0.42090    0.76210    0.05290    1.000
    O13      O        0.08930    0.56960    0.03360    1.000
    O14      O        0.13450    0.51120    0.10650    1.000
    O15      O        0.55540    0.60430    0.67920    1.000
    Zn3      Zn       0.41896    0.91922    0.10036    1.000
    C57      C        0.38670    0.60820    0.08350    1.000
    H39      H        0.42530    0.64010    0.08290    1.000
    C58      C        0.39440    0.53650    0.09710    1.000
    H40      H        0.43640    0.52080    0.11220    1.000
    C59      C        0.27900    0.50670    0.08160    1.000
    H41      H        0.24240    0.47210    0.08340    1.000
    C60      C        0.34220    0.48210    0.09010    1.000
    H42      H        0.35200    0.43000    0.09130    1.000
    C61      C        0.97910    0.33730    0.82860    1.000
    H43      H        0.96700    0.35360    0.86610    1.000
    C62      C        0.96240    0.38650    0.78510    1.000
    H44      H        0.94600    0.43800    0.79180    1.000
    C63      C        0.96480    0.36060    0.73040    1.000
    H45      H        0.95860    0.39540    0.69950    1.000
    C64      C        0.98410    0.28540    0.71910    1.000
    H46      H        0.99440    0.26900    0.68160    1.000
    C65      C        0.86260    0.27780    0.07090    1.000
    C66      C        0.80880    0.21780    0.07050    1.000
    C67      C        0.74070    0.24140    0.06820    1.000
    H47      H        0.73140    0.29370    0.06790    1.000
    C68      C        0.82110    0.13840    0.06980    1.000
    C69      C        0.89320    0.10340    0.05460    1.000
    H48      H        0.93070    0.13430    0.04530    1.000
    C70      C        0.89880    0.02290    0.05550    1.000
    H49      H        0.94270    0.00150    0.05900    1.000
    C71      C        0.68500    0.19030    0.06630    1.000
    H50      H        0.63980    0.20840    0.06410    1.000
    C72      C        0.76480    0.08480    0.06970    1.000
    C73      C        0.78080    0.00020    0.05450    1.000
    H51      H        0.74430    0.96680    0.04750    1.000
    C74      C        0.84390    0.97520    0.05140    1.000
    H52      H        0.85160    0.92300    0.04630    1.000
    C75      C        0.69780    0.11330    0.06770    1.000
    C76      C        0.63530    0.06060    0.06840    1.000
    O16      O        0.84600    0.34140    0.09080    1.000
    O17      O        0.92090    0.26210    0.05290    1.000
    O18      O        0.58930    0.06960    0.03360    1.000
    O19      O        0.63450    0.01120    0.10650    1.000
    O20      O        0.05540    0.10430    0.67920    1.000
    Zn4      Zn       0.91896    0.41922    0.10036    1.000
    C77      C        0.88670    0.10820    0.08350    1.000
    H53      H        0.92530    0.14010    0.08290    1.000
    C78      C        0.89440    0.03650    0.09710    1.000
    H54      H        0.93640    0.02080    0.11220    1.000
    C79      C        0.77900    0.00670    0.08160    1.000
    H55      H        0.74240    0.97210    0.08340    1.000
    C80      C        0.84220    0.98210    0.09010    1.000
    H56      H        0.85200    0.93000    0.09130    1.000
    C81      C        0.47910    0.16270    0.17140    1.000
    H57      H        0.46700    0.14640    0.13390    1.000
    C82      C        0.46240    0.11350    0.21490    1.000
    H58      H        0.44600    0.06200    0.20820    1.000
    C83      C        0.46480    0.13940    0.26960    1.000
    H59      H        0.45860    0.10460    0.30050    1.000
    C84      C        0.48410    0.21460    0.28090    1.000
    H60      H        0.49440    0.23100    0.31840    1.000
    C85      C        0.36260    0.22220    0.92910    1.000
    C86      C        0.30880    0.28220    0.92950    1.000
    C87      C        0.24070    0.25860    0.93180    1.000
    H61      H        0.23140    0.20630    0.93210    1.000
    C88      C        0.32110    0.36160    0.93020    1.000
    C89      C        0.39320    0.39660    0.94540    1.000
    H62      H        0.43070    0.36570    0.95470    1.000
    C90      C        0.39880    0.47710    0.94450    1.000
    H63      H        0.44270    0.49850    0.94100    1.000
    C91      C        0.18500    0.30970    0.93370    1.000
    H64      H        0.13980    0.29160    0.93590    1.000
    C92      C        0.26480    0.41520    0.93030    1.000
    C93      C        0.28080    0.49980    0.94550    1.000
    H65      H        0.24430    0.53320    0.95250    1.000
    C94      C        0.34390    0.52480    0.94860    1.000
    H66      H        0.35160    0.57700    0.95370    1.000
    C95      C        0.19780    0.38670    0.93230    1.000
    C96      C        0.13530    0.43940    0.93160    1.000
    O21      O        0.34600    0.15860    0.90920    1.000
    O22      O        0.42090    0.23790    0.94710    1.000
    O23      O        0.08930    0.43040    0.96640    1.000
    O24      O        0.13450    0.48880    0.89350    1.000
    O25      O        0.55540    0.39570    0.32080    1.000
    Zn5      Zn       0.41896    0.08078    0.89964    1.000
    C97      C        0.38670    0.39180    0.91650    1.000
    H67      H        0.42530    0.35990    0.91710    1.000
    C98      C        0.39440    0.46350    0.90290    1.000
    H68      H        0.43640    0.47920    0.88780    1.000
    C99      C        0.27900    0.49330    0.91840    1.000
    H69      H        0.24240    0.52790    0.91660    1.000
    C100     C        0.34220    0.51790    0.90990    1.000
    H70      H        0.35200    0.57000    0.90870    1.000
    C101     C        0.97910    0.66270    0.17140    1.000
    H71      H        0.96700    0.64640    0.13390    1.000
    C102     C        0.96240    0.61350    0.21490    1.000
    H72      H        0.94600    0.56200    0.20820    1.000
    C103     C        0.96480    0.63940    0.26960    1.000
    H73      H        0.95860    0.60460    0.30050    1.000
    C104     C        0.98410    0.71460    0.28090    1.000
    H74      H        0.99440    0.73100    0.31840    1.000
    C105     C        0.86260    0.72220    0.92910    1.000
    C106     C        0.80880    0.78220    0.92950    1.000
    C107     C        0.74070    0.75860    0.93180    1.000
    H75      H        0.73140    0.70630    0.93210    1.000
    C108     C        0.82110    0.86160    0.93020    1.000
    C109     C        0.89320    0.89660    0.94540    1.000
    H76      H        0.93070    0.86570    0.95470    1.000
    C110     C        0.89880    0.97710    0.94450    1.000
    H77      H        0.94270    0.99850    0.94100    1.000
    C111     C        0.68500    0.80970    0.93370    1.000
    H78      H        0.63980    0.79160    0.93590    1.000
    C112     C        0.76480    0.91520    0.93030    1.000
    C113     C        0.78080    0.99980    0.94550    1.000
    H79      H        0.74430    0.03320    0.95250    1.000
    C114     C        0.84390    0.02480    0.94860    1.000
    H80      H        0.85160    0.07700    0.95370    1.000
    C115     C        0.69780    0.88670    0.93230    1.000
    C116     C        0.63530    0.93940    0.93160    1.000
    O26      O        0.84600    0.65860    0.90920    1.000
    O27      O        0.92090    0.73790    0.94710    1.000
    O28      O        0.58930    0.93040    0.96640    1.000
    O29      O        0.63450    0.98880    0.89350    1.000
    O30      O        0.05540    0.89570    0.32080    1.000
    Zn6      Zn       0.91896    0.58078    0.89964    1.000
    C117     C        0.88670    0.89180    0.91650    1.000
    H81      H        0.92530    0.85990    0.91710    1.000
    C118     C        0.89440    0.96350    0.90290    1.000
    H82      H        0.93640    0.97920    0.88780    1.000
    C119     C        0.77900    0.99330    0.91840    1.000
    H83      H        0.74240    0.02790    0.91660    1.000
    C120     C        0.84220    0.01790    0.90990    1.000
    H84      H        0.85200    0.07000    0.90870    1.000
    C121     C        0.52090    0.33730    0.67140    1.000
    H85      H        0.53300    0.35360    0.63390    1.000
    C122     C        0.53760    0.38650    0.71490    1.000
    H86      H        0.55400    0.43800    0.70820    1.000
    C123     C        0.53520    0.36060    0.76960    1.000
    H87      H        0.54140    0.39540    0.80050    1.000
    C124     C        0.51590    0.28540    0.78090    1.000
    H88      H        0.50560    0.26900    0.81840    1.000
    C125     C        0.63740    0.27780    0.42910    1.000
    C126     C        0.69120    0.21780    0.42950    1.000
    C127     C        0.75930    0.24140    0.43180    1.000
    H89      H        0.76860    0.29370    0.43210    1.000
    C128     C        0.67890    0.13840    0.43020    1.000
    C129     C        0.60680    0.10340    0.44540    1.000
    H90      H        0.56930    0.13430    0.45470    1.000
    C130     C        0.60120    0.02290    0.44450    1.000
    H91      H        0.55730    0.00150    0.44100    1.000
    C131     C        0.81500    0.19030    0.43370    1.000
    H92      H        0.86020    0.20840    0.43590    1.000
    C132     C        0.73520    0.08480    0.43030    1.000
    C133     C        0.71920    0.00020    0.44550    1.000
    H93      H        0.75570    0.96680    0.45250    1.000
    C134     C        0.65610    0.97520    0.44860    1.000
    H94      H        0.64840    0.92300    0.45370    1.000
    C135     C        0.80220    0.11330    0.43230    1.000
    C136     C        0.86470    0.06060    0.43160    1.000
    O31      O        0.65400    0.34140    0.40920    1.000
    O32      O        0.57910    0.26210    0.44710    1.000
    O33      O        0.91070    0.06960    0.46640    1.000
    O34      O        0.86550    0.01120    0.39350    1.000
    O35      O        0.44460    0.10430    0.82080    1.000
    Zn7      Zn       0.58104    0.41922    0.39964    1.000
    C137     C        0.61330    0.10820    0.41650    1.000
    H95      H        0.57470    0.14010    0.41710    1.000
    C138     C        0.60560    0.03650    0.40290    1.000
    H96      H        0.56360    0.02080    0.38780    1.000
    C139     C        0.72100    0.00670    0.41840    1.000
    H97      H        0.75760    0.97210    0.41660    1.000
    C140     C        0.65780    0.98210    0.40990    1.000
    H98      H        0.64800    0.93000    0.40870    1.000
    C141     C        0.02090    0.83730    0.67140    1.000
    H99      H        0.03300    0.85360    0.63390    1.000
    C142     C        0.03760    0.88650    0.71490    1.000
    H100     H        0.05400    0.93800    0.70820    1.000
    C143     C        0.03520    0.86060    0.76960    1.000
    H101     H        0.04140    0.89540    0.80050    1.000
    C144     C        0.01590    0.78540    0.78090    1.000
    H102     H        0.00560    0.76900    0.81840    1.000
    C145     C        0.13740    0.77780    0.42910    1.000
    C146     C        0.19120    0.71780    0.42950    1.000
    C147     C        0.25930    0.74140    0.43180    1.000
    H103     H        0.26860    0.79370    0.43210    1.000
    C148     C        0.17890    0.63840    0.43020    1.000
    C149     C        0.10680    0.60340    0.44540    1.000
    H104     H        0.06930    0.63430    0.45470    1.000
    C150     C        0.10120    0.52290    0.44450    1.000
    H105     H        0.05730    0.50150    0.44100    1.000
    C151     C        0.31500    0.69030    0.43370    1.000
    H106     H        0.36020    0.70840    0.43590    1.000
    C152     C        0.23520    0.58480    0.43030    1.000
    C153     C        0.21920    0.50020    0.44550    1.000
    H107     H        0.25570    0.46680    0.45250    1.000
    C154     C        0.15610    0.47520    0.44860    1.000
    H108     H        0.14840    0.42300    0.45370    1.000
    C155     C        0.30220    0.61330    0.43230    1.000
    C156     C        0.36470    0.56060    0.43160    1.000
    O36      O        0.15400    0.84140    0.40920    1.000
    O37      O        0.07910    0.76210    0.44710    1.000
    O38      O        0.41070    0.56960    0.46640    1.000
    O39      O        0.36550    0.51120    0.39350    1.000
    O40      O        0.94460    0.60430    0.82080    1.000
    Zn8      Zn       0.08104    0.91922    0.39964    1.000
    C157     C        0.11330    0.60820    0.41650    1.000
    H109     H        0.07470    0.64010    0.41710    1.000
    C158     C        0.10560    0.53650    0.40290    1.000
    H110     H        0.06360    0.52080    0.38780    1.000
    C159     C        0.22100    0.50670    0.41840    1.000
    H111     H        0.25760    0.47210    0.41660    1.000
    C160     C        0.15780    0.48210    0.40990    1.000
    H112     H        0.14800    0.43000    0.40870    1.000
    C161     C        0.47910    0.33730    0.67140    1.000
    H113     H        0.46700    0.35360    0.63390    1.000
    C162     C        0.46240    0.38650    0.71490    1.000
    H114     H        0.44600    0.43800    0.70820    1.000
    C163     C        0.46480    0.36060    0.76960    1.000
    H115     H        0.45860    0.39540    0.80050    1.000
    C164     C        0.48410    0.28540    0.78090    1.000
    H116     H        0.49440    0.26900    0.81840    1.000
    C165     C        0.36260    0.27780    0.42910    1.000
    C166     C        0.30880    0.21780    0.42950    1.000
    C167     C        0.24070    0.24140    0.43180    1.000
    H117     H        0.23140    0.29370    0.43210    1.000
    C168     C        0.32110    0.13840    0.43020    1.000
    C169     C        0.39320    0.10340    0.44540    1.000
    H118     H        0.43070    0.13430    0.45470    1.000
    C170     C        0.39880    0.02290    0.44450    1.000
    H119     H        0.44270    0.00150    0.44100    1.000
    C171     C        0.18500    0.19030    0.43370    1.000
    H120     H        0.13980    0.20840    0.43590    1.000
    C172     C        0.26480    0.08480    0.43030    1.000
    C173     C        0.28080    0.00020    0.44550    1.000
    H121     H        0.24430    0.96680    0.45250    1.000
    C174     C        0.34390    0.97520    0.44860    1.000
    H122     H        0.35160    0.92300    0.45370    1.000
    C175     C        0.19780    0.11330    0.43230    1.000
    C176     C        0.13530    0.06060    0.43160    1.000
    O41      O        0.34600    0.34140    0.40920    1.000
    O42      O        0.42090    0.26210    0.44710    1.000
    O43      O        0.08930    0.06960    0.46640    1.000
    O44      O        0.13450    0.01120    0.39350    1.000
    O45      O        0.55540    0.10430    0.82080    1.000
    Zn9      Zn       0.41896    0.41922    0.39964    1.000
    C177     C        0.38670    0.10820    0.41650    1.000
    H123     H        0.42530    0.14010    0.41710    1.000
    C178     C        0.39440    0.03650    0.40290    1.000
    H124     H        0.43640    0.02080    0.38780    1.000
    C179     C        0.27900    0.00670    0.41840    1.000
    H125     H        0.24240    0.97210    0.41660    1.000
    C180     C        0.34220    0.98210    0.40990    1.000
    H126     H        0.35200    0.93000    0.40870    1.000
    C181     C        0.97910    0.83730    0.67140    1.000
    H127     H        0.96700    0.85360    0.63390    1.000
    C182     C        0.96240    0.88650    0.71490    1.000
    H128     H        0.94600    0.93800    0.70820    1.000
    C183     C        0.96480    0.86060    0.76960    1.000
    H129     H        0.95860    0.89540    0.80050    1.000
    C184     C        0.98410    0.78540    0.78090    1.000
    H130     H        0.99440    0.76900    0.81840    1.000
    C185     C        0.86260    0.77780    0.42910    1.000
    C186     C        0.80880    0.71780    0.42950    1.000
    C187     C        0.74070    0.74140    0.43180    1.000
    H131     H        0.73140    0.79370    0.43210    1.000
    C188     C        0.82110    0.63840    0.43020    1.000
    C189     C        0.89320    0.60340    0.44540    1.000
    H132     H        0.93070    0.63430    0.45470    1.000
    C190     C        0.89880    0.52290    0.44450    1.000
    H133     H        0.94270    0.50150    0.44100    1.000
    C191     C        0.68500    0.69030    0.43370    1.000
    H134     H        0.63980    0.70840    0.43590    1.000
    C192     C        0.76480    0.58480    0.43030    1.000
    C193     C        0.78080    0.50020    0.44550    1.000
    H135     H        0.74430    0.46680    0.45250    1.000
    C194     C        0.84390    0.47520    0.44860    1.000
    H136     H        0.85160    0.42300    0.45370    1.000
    C195     C        0.69780    0.61330    0.43230    1.000
    C196     C        0.63530    0.56060    0.43160    1.000
    O46      O        0.84600    0.84140    0.40920    1.000
    O47      O        0.92090    0.76210    0.44710    1.000
    O48      O        0.58930    0.56960    0.46640    1.000
    O49      O        0.63450    0.51120    0.39350    1.000
    O50      O        0.05540    0.60430    0.82080    1.000
    Zn10     Zn       0.91896    0.91922    0.39964    1.000
    C197     C        0.88670    0.60820    0.41650    1.000
    H137     H        0.92530    0.64010    0.41710    1.000
    C198     C        0.89440    0.53650    0.40290    1.000
    H138     H        0.93640    0.52080    0.38780    1.000
    C199     C        0.77900    0.50670    0.41840    1.000
    H139     H        0.74240    0.47210    0.41660    1.000
    C200     C        0.84220    0.48210    0.40990    1.000
    H140     H        0.85200    0.43000    0.40870    1.000
    C201     C        0.52090    0.16270    0.17140    1.000
    H141     H        0.53300    0.14640    0.13390    1.000
    C202     C        0.53760    0.11350    0.21490    1.000
    H142     H        0.55400    0.06200    0.20820    1.000
    C203     C        0.53520    0.13940    0.26960    1.000
    H143     H        0.54140    0.10460    0.30050    1.000
    C204     C        0.51590    0.21460    0.28090    1.000
    H144     H        0.50560    0.23100    0.31840    1.000
    C205     C        0.63740    0.22220    0.92910    1.000
    C206     C        0.69120    0.28220    0.92950    1.000
    C207     C        0.75930    0.25860    0.93180    1.000
    H145     H        0.76860    0.20630    0.93210    1.000
    C208     C        0.67890    0.36160    0.93020    1.000
    C209     C        0.60680    0.39660    0.94540    1.000
    H146     H        0.56930    0.36570    0.95470    1.000
    C210     C        0.60120    0.47710    0.94450    1.000
    H147     H        0.55730    0.49850    0.94100    1.000
    C211     C        0.81500    0.30970    0.93370    1.000
    H148     H        0.86020    0.29160    0.93590    1.000
    C212     C        0.73520    0.41520    0.93030    1.000
    C213     C        0.71920    0.49980    0.94550    1.000
    H149     H        0.75570    0.53320    0.95250    1.000
    C214     C        0.65610    0.52480    0.94860    1.000
    H150     H        0.64840    0.57700    0.95370    1.000
    C215     C        0.80220    0.38670    0.93230    1.000
    C216     C        0.86470    0.43940    0.93160    1.000
    O51      O        0.65400    0.15860    0.90920    1.000
    O52      O        0.57910    0.23790    0.94710    1.000
    O53      O        0.91070    0.43040    0.96640    1.000
    O54      O        0.86550    0.48880    0.89350    1.000
    O55      O        0.44460    0.39570    0.32080    1.000
    Zn11     Zn       0.58104    0.08078    0.89964    1.000
    C217     C        0.61330    0.39180    0.91650    1.000
    H151     H        0.57470    0.35990    0.91710    1.000
    C218     C        0.60560    0.46350    0.90290    1.000
    H152     H        0.56360    0.47920    0.88780    1.000
    C219     C        0.72100    0.49330    0.91840    1.000
    H153     H        0.75760    0.52790    0.91660    1.000
    C220     C        0.65780    0.51790    0.90990    1.000
    H154     H        0.64800    0.57000    0.90870    1.000
    C221     C        0.02090    0.66270    0.17140    1.000
    H155     H        0.03300    0.64640    0.13390    1.000
    C222     C        0.03760    0.61350    0.21490    1.000
    H156     H        0.05400    0.56200    0.20820    1.000
    C223     C        0.03520    0.63940    0.26960    1.000
    H157     H        0.04140    0.60460    0.30050    1.000
    C224     C        0.01590    0.71460    0.28090    1.000
    H158     H        0.00560    0.73100    0.31840    1.000
    C225     C        0.13740    0.72220    0.92910    1.000
    C226     C        0.19120    0.78220    0.92950    1.000
    C227     C        0.25930    0.75860    0.93180    1.000
    H159     H        0.26860    0.70630    0.93210    1.000
    C228     C        0.17890    0.86160    0.93020    1.000
    C229     C        0.10680    0.89660    0.94540    1.000
    H160     H        0.06930    0.86570    0.95470    1.000
    C230     C        0.10120    0.97710    0.94450    1.000
    H161     H        0.05730    0.99850    0.94100    1.000
    C231     C        0.31500    0.80970    0.93370    1.000
    H162     H        0.36020    0.79160    0.93590    1.000
    C232     C        0.23520    0.91520    0.93030    1.000
    C233     C        0.21920    0.99980    0.94550    1.000
    H163     H        0.25570    0.03320    0.95250    1.000
    C234     C        0.15610    0.02480    0.94860    1.000
    H164     H        0.14840    0.07700    0.95370    1.000
    C235     C        0.30220    0.88670    0.93230    1.000
    C236     C        0.36470    0.93940    0.93160    1.000
    O56      O        0.15400    0.65860    0.90920    1.000
    O57      O        0.07910    0.73790    0.94710    1.000
    O58      O        0.41070    0.93040    0.96640    1.000
    O59      O        0.36550    0.98880    0.89350    1.000
    O60      O        0.94460    0.89570    0.32080    1.000
    Zn12     Zn       0.08104    0.58078    0.89964    1.000
    C237     C        0.11330    0.89180    0.91650    1.000
    H165     H        0.07470    0.85990    0.91710    1.000
    C238     C        0.10560    0.96350    0.90290    1.000
    H166     H        0.06360    0.97920    0.88780    1.000
    C239     C        0.22100    0.99330    0.91840    1.000
    H167     H        0.25760    0.02790    0.91660    1.000
    C240     C        0.15780    0.01790    0.90990    1.000
    H168     H        0.14800    0.07000    0.90870    1.000
    C241     C        0.52090    0.83730    0.82860    1.000
    H169     H        0.53300    0.85360    0.86610    1.000
    C242     C        0.53760    0.88650    0.78510    1.000
    H170     H        0.55400    0.93800    0.79180    1.000
    C243     C        0.53520    0.86060    0.73040    1.000
    H171     H        0.54140    0.89540    0.69950    1.000
    C244     C        0.51590    0.78540    0.71910    1.000
    H172     H        0.50560    0.76900    0.68160    1.000
    C245     C        0.63740    0.77780    0.07090    1.000
    C246     C        0.69120    0.71780    0.07050    1.000
    C247     C        0.75930    0.74140    0.06820    1.000
    H173     H        0.76860    0.79370    0.06790    1.000
    C248     C        0.67890    0.63840    0.06980    1.000
    C249     C        0.60680    0.60340    0.05460    1.000
    H174     H        0.56930    0.63430    0.04530    1.000
    C250     C        0.60120    0.52290    0.05550    1.000
    H175     H        0.55730    0.50150    0.05900    1.000
    C251     C        0.81500    0.69030    0.06630    1.000
    H176     H        0.86020    0.70840    0.06410    1.000
    C252     C        0.73520    0.58480    0.06970    1.000
    C253     C        0.71920    0.50020    0.05450    1.000
    H177     H        0.75570    0.46680    0.04750    1.000
    C254     C        0.65610    0.47520    0.05140    1.000
    H178     H        0.64840    0.42300    0.04630    1.000
    C255     C        0.80220    0.61330    0.06770    1.000
    C256     C        0.86470    0.56060    0.06840    1.000
    O61      O        0.65400    0.84140    0.09080    1.000
    O62      O        0.57910    0.76210    0.05290    1.000
    O63      O        0.91070    0.56960    0.03360    1.000
    O64      O        0.86550    0.51120    0.10650    1.000
    O65      O        0.44460    0.60430    0.67920    1.000
    Zn13     Zn       0.58104    0.91922    0.10036    1.000
    C257     C        0.61330    0.60820    0.08350    1.000
    H179     H        0.57470    0.64010    0.08290    1.000
    C258     C        0.60560    0.53650    0.09710    1.000
    H180     H        0.56360    0.52080    0.11220    1.000
    C259     C        0.72100    0.50670    0.08160    1.000
    H181     H        0.75760    0.47210    0.08340    1.000
    C260     C        0.65780    0.48210    0.09010    1.000
    H182     H        0.64800    0.43000    0.09130    1.000
    C261     C        0.02090    0.33730    0.82860    1.000
    H183     H        0.03300    0.35360    0.86610    1.000
    C262     C        0.03760    0.38650    0.78510    1.000
    H184     H        0.05400    0.43800    0.79180    1.000
    C263     C        0.03520    0.36060    0.73040    1.000
    H185     H        0.04140    0.39540    0.69950    1.000
    C264     C        0.01590    0.28540    0.71910    1.000
    H186     H        0.00560    0.26900    0.68160    1.000
    C265     C        0.13740    0.27780    0.07090    1.000
    C266     C        0.19120    0.21780    0.07050    1.000
    C267     C        0.25930    0.24140    0.06820    1.000
    H187     H        0.26860    0.29370    0.06790    1.000
    C268     C        0.17890    0.13840    0.06980    1.000
    C269     C        0.10680    0.10340    0.05460    1.000
    H188     H        0.06930    0.13430    0.04530    1.000
    C270     C        0.10120    0.02290    0.05550    1.000
    H189     H        0.05730    0.00150    0.05900    1.000
    C271     C        0.31500    0.19030    0.06630    1.000
    H190     H        0.36020    0.20840    0.06410    1.000
    C272     C        0.23520    0.08480    0.06970    1.000
    C273     C        0.21920    0.00020    0.05450    1.000
    H191     H        0.25570    0.96680    0.04750    1.000
    C274     C        0.15610    0.97520    0.05140    1.000
    H192     H        0.14840    0.92300    0.04630    1.000
    C275     C        0.30220    0.11330    0.06770    1.000
    C276     C        0.36470    0.06060    0.06840    1.000
    O66      O        0.15400    0.34140    0.09080    1.000
    O67      O        0.07910    0.26210    0.05290    1.000
    O68      O        0.41070    0.06960    0.03360    1.000
    O69      O        0.36550    0.01120    0.10650    1.000
    O70      O        0.94460    0.10430    0.67920    1.000
    Zn14     Zn       0.08104    0.41922    0.10036    1.000
    C277     C        0.11330    0.10820    0.08350    1.000
    H193     H        0.07470    0.14010    0.08290    1.000
    C278     C        0.10560    0.03650    0.09710    1.000
    H194     H        0.06360    0.02080    0.11220    1.000
    C279     C        0.22100    0.00670    0.08160    1.000
    H195     H        0.25760    0.97210    0.08340    1.000
    C280     C        0.15780    0.98210    0.09010    1.000
    H196     H        0.14800    0.93000    0.09130    1.000
    C281     C        0.47910    0.66270    0.32860    1.000
    H197     H        0.46700    0.64640    0.36610    1.000
    C282     C        0.46240    0.61350    0.28510    1.000
    H198     H        0.44600    0.56200    0.29180    1.000
    C283     C        0.46480    0.63940    0.23040    1.000
    H199     H        0.45860    0.60460    0.19950    1.000
    C284     C        0.48410    0.71460    0.21910    1.000
    H200     H        0.49440    0.73100    0.18160    1.000
    C285     C        0.36260    0.72220    0.57090    1.000
    C286     C        0.30880    0.78220    0.57050    1.000
    C287     C        0.24070    0.75860    0.56820    1.000
    H201     H        0.23140    0.70630    0.56790    1.000
    C288     C        0.32110    0.86160    0.56980    1.000
    C289     C        0.39320    0.89660    0.55460    1.000
    H202     H        0.43070    0.86570    0.54530    1.000
    C290     C        0.39880    0.97710    0.55550    1.000
    H203     H        0.44270    0.99850    0.55900    1.000
    C291     C        0.18500    0.80970    0.56630    1.000
    H204     H        0.13980    0.79160    0.56410    1.000
    C292     C        0.26480    0.91520    0.56970    1.000
    C293     C        0.28080    0.99980    0.55450    1.000
    H205     H        0.24430    0.03320    0.54750    1.000
    C294     C        0.34390    0.02480    0.55140    1.000
    H206     H        0.35160    0.07700    0.54630    1.000
    C295     C        0.19780    0.88670    0.56770    1.000
    C296     C        0.13530    0.93940    0.56840    1.000
    O71      O        0.34600    0.65860    0.59080    1.000
    O72      O        0.42090    0.73790    0.55290    1.000
    O73      O        0.08930    0.93040    0.53360    1.000
    O74      O        0.13450    0.98880    0.60650    1.000
    O75      O        0.55540    0.89570    0.17920    1.000
    Zn15     Zn       0.41896    0.58078    0.60036    1.000
    C297     C        0.38670    0.89180    0.58350    1.000
    H207     H        0.42530    0.85990    0.58290    1.000
    C298     C        0.39440    0.96350    0.59710    1.000
    H208     H        0.43640    0.97920    0.61220    1.000
    C299     C        0.27900    0.99330    0.58160    1.000
    H209     H        0.24240    0.02790    0.58340    1.000
    C300     C        0.34220    0.01790    0.59010    1.000
    H210     H        0.35200    0.07000    0.59130    1.000
    C301     C        0.97910    0.16270    0.32860    1.000
    H211     H        0.96700    0.14640    0.36610    1.000
    C302     C        0.96240    0.11350    0.28510    1.000
    H212     H        0.94600    0.06200    0.29180    1.000
    C303     C        0.96480    0.13940    0.23040    1.000
    H213     H        0.95860    0.10460    0.19950    1.000
    C304     C        0.98410    0.21460    0.21910    1.000
    H214     H        0.99440    0.23100    0.18160    1.000
    C305     C        0.86260    0.22220    0.57090    1.000
    C306     C        0.80880    0.28220    0.57050    1.000
    C307     C        0.74070    0.25860    0.56820    1.000
    H215     H        0.73140    0.20630    0.56790    1.000
    C308     C        0.82110    0.36160    0.56980    1.000
    C309     C        0.89320    0.39660    0.55460    1.000
    H216     H        0.93070    0.36570    0.54530    1.000
    C310     C        0.89880    0.47710    0.55550    1.000
    H217     H        0.94270    0.49850    0.55900    1.000
    C311     C        0.68500    0.30970    0.56630    1.000
    H218     H        0.63980    0.29160    0.56410    1.000
    C312     C        0.76480    0.41520    0.56970    1.000
    C313     C        0.78080    0.49980    0.55450    1.000
    H219     H        0.74430    0.53320    0.54750    1.000
    C314     C        0.84390    0.52480    0.55140    1.000
    H220     H        0.85160    0.57700    0.54630    1.000
    C315     C        0.69780    0.38670    0.56770    1.000
    C316     C        0.63530    0.43940    0.56840    1.000
    O76      O        0.84600    0.15860    0.59080    1.000
    O77      O        0.92090    0.23790    0.55290    1.000
    O78      O        0.58930    0.43040    0.53360    1.000
    O79      O        0.63450    0.48880    0.60650    1.000
    O80      O        0.05540    0.39570    0.17920    1.000
    Zn16     Zn       0.91896    0.08078    0.60036    1.000
    C317     C        0.88670    0.39180    0.58350    1.000
    H221     H        0.92530    0.35990    0.58290    1.000
    C318     C        0.89440    0.46350    0.59710    1.000
    H222     H        0.93640    0.47920    0.61220    1.000
    C319     C        0.77900    0.49330    0.58160    1.000
    H223     H        0.74240    0.52790    0.58340    1.000
    C320     C        0.84220    0.51790    0.59010    1.000
    H224     H        0.85200    0.57000    0.59130    1.000
    Zn17     Zn       0.50000    0.50000    0.50000    1.000
    Zn18     Zn       0.00000    0.00000    0.50000    1.000
    Zn19     Zn       0.50000    0.00000    0.00000    1.000
    Zn20     Zn       0.00000    0.50000    0.00000    1.000
    C321     C        0.50000    0.76380    0.26260    1.000
    C322     C        0.50000    0.73790    0.31730    1.000
    C323     C        0.50000    0.77570    0.42100    1.000
    C324     C        0.50000    0.79990    0.36490    1.000
    C325     C        0.50000    0.86520    0.35330    1.000
    H225     H        0.50000    0.90090    0.38200    1.000
    C326     C        0.50000    0.89160    0.29900    1.000
    H226     H        0.50000    0.94450    0.29410    1.000
    C327     C        0.50000    0.85200    0.25620    1.000
    C328     C        0.50000    0.88350    0.20050    1.000
    O81      O        0.50000    0.58280    0.55430    1.000
    O82      O        0.50000    0.71380    0.44000    1.000
    O83      O        0.50000    0.83320    0.45440    1.000
    Zn21     Zn       0.50000    0.68402    0.51706    1.000
    Zn22     Zn       0.50000    0.54320    0.47210    1.000
    C329     C        0.00000    0.26380    0.26260    1.000
    C330     C        0.00000    0.23790    0.31730    1.000
    C331     C        0.00000    0.27570    0.42100    1.000
    C332     C        0.00000    0.29990    0.36490    1.000
    C333     C        0.00000    0.36520    0.35330    1.000
    H227     H        0.00000    0.40090    0.38200    1.000
    C334     C        0.00000    0.39160    0.29900    1.000
    H228     H        0.00000    0.44450    0.29410    1.000
    C335     C        0.00000    0.35200    0.25620    1.000
    C336     C        0.00000    0.38350    0.20050    1.000
    O84      O        0.00000    0.08280    0.55430    1.000
    O85      O        0.00000    0.21380    0.44000    1.000
    O86      O        0.00000    0.33320    0.45440    1.000
    Zn23     Zn       0.00000    0.18402    0.51706    1.000
    Zn24     Zn       0.00000    0.04320    0.47210    1.000
    C337     C        0.50000    0.73620    0.76260    1.000
    C338     C        0.50000    0.76210    0.81730    1.000
    C339     C        0.50000    0.72430    0.92100    1.000
    C340     C        0.50000    0.70010    0.86490    1.000
    C341     C        0.50000    0.63480    0.85330    1.000
    H229     H        0.50000    0.59910    0.88200    1.000
    C342     C        0.50000    0.60840    0.79900    1.000
    H230     H        0.50000    0.55550    0.79410    1.000
    C343     C        0.50000    0.64800    0.75620    1.000
    C344     C        0.50000    0.61650    0.70050    1.000
    O87      O        0.50000    0.91720    0.05430    1.000
    O88      O        0.50000    0.78620    0.94000    1.000
    O89      O        0.50000    0.66680    0.95440    1.000
    Zn25     Zn       0.50000    0.81598    0.01706    1.000
    Zn26     Zn       0.50000    0.95680    0.97210    1.000
    C345     C        0.00000    0.23620    0.76260    1.000
    C346     C        0.00000    0.26210    0.81730    1.000
    C347     C        0.00000    0.22430    0.92100    1.000
    C348     C        0.00000    0.20010    0.86490    1.000
    C349     C        0.00000    0.13480    0.85330    1.000
    H231     H        0.00000    0.09910    0.88200    1.000
    C350     C        0.00000    0.10840    0.79900    1.000
    H232     H        0.00000    0.05550    0.79410    1.000
    C351     C        0.00000    0.14800    0.75620    1.000
    C352     C        0.00000    0.11650    0.70050    1.000
    O90      O        0.00000    0.41720    0.05430    1.000
    O91      O        0.00000    0.28620    0.94000    1.000
    O92      O        0.00000    0.16680    0.95440    1.000
    Zn27     Zn       0.00000    0.31598    0.01706    1.000
    Zn28     Zn       0.00000    0.45680    0.97210    1.000
    C353     C        0.50000    0.26380    0.23740    1.000
    C354     C        0.50000    0.23790    0.18270    1.000
    C355     C        0.50000    0.27570    0.07900    1.000
    C356     C        0.50000    0.29990    0.13510    1.000
    C357     C        0.50000    0.36520    0.14670    1.000
    H233     H        0.50000    0.40090    0.11800    1.000
    C358     C        0.50000    0.39160    0.20100    1.000
    H234     H        0.50000    0.44450    0.20590    1.000
    C359     C        0.50000    0.35200    0.24380    1.000
    C360     C        0.50000    0.38350    0.29950    1.000
    O93      O        0.50000    0.08280    0.94570    1.000
    O94      O        0.50000    0.21380    0.06000    1.000
    O95      O        0.50000    0.33320    0.04560    1.000
    Zn29     Zn       0.50000    0.18402    0.98294    1.000
    Zn30     Zn       0.50000    0.04320    0.02790    1.000
    C361     C        0.00000    0.76380    0.23740    1.000
    C362     C        0.00000    0.73790    0.18270    1.000
    C363     C        0.00000    0.77570    0.07900    1.000
    C364     C        0.00000    0.79990    0.13510    1.000
    C365     C        0.00000    0.86520    0.14670    1.000
    H235     H        0.00000    0.90090    0.11800    1.000
    C366     C        0.00000    0.89160    0.20100    1.000
    H236     H        0.00000    0.94450    0.20590    1.000
    C367     C        0.00000    0.85200    0.24380    1.000
    C368     C        0.00000    0.88350    0.29950    1.000
    O96      O        0.00000    0.58280    0.94570    1.000
    O97      O        0.00000    0.71380    0.06000    1.000
    O98      O        0.00000    0.83320    0.04560    1.000
    Zn31     Zn       0.00000    0.68402    0.98294    1.000
    Zn32     Zn       0.00000    0.54320    0.02790    1.000
    C369     C        0.50000    0.23620    0.73740    1.000
    C370     C        0.50000    0.26210    0.68270    1.000
    C371     C        0.50000    0.22430    0.57900    1.000
    C372     C        0.50000    0.20010    0.63510    1.000
    C373     C        0.50000    0.13480    0.64670    1.000
    H237     H        0.50000    0.09910    0.61800    1.000
    C374     C        0.50000    0.10840    0.70100    1.000
    H238     H        0.50000    0.05550    0.70590    1.000
    C375     C        0.50000    0.14800    0.74380    1.000
    C376     C        0.50000    0.11650    0.79950    1.000
    O99      O        0.50000    0.41720    0.44570    1.000
    O100     O        0.50000    0.28620    0.56000    1.000
    O101     O        0.50000    0.16680    0.54560    1.000
    Zn33     Zn       0.50000    0.31598    0.48294    1.000
    Zn34     Zn       0.50000    0.45680    0.52790    1.000
    C377     C        0.00000    0.73620    0.73740    1.000
    C378     C        0.00000    0.76210    0.68270    1.000
    C379     C        0.00000    0.72430    0.57900    1.000
    C380     C        0.00000    0.70010    0.63510    1.000
    C381     C        0.00000    0.63480    0.64670    1.000
    H239     H        0.00000    0.59910    0.61800    1.000
    C382     C        0.00000    0.60840    0.70100    1.000
    H240     H        0.00000    0.55550    0.70590    1.000
    C383     C        0.00000    0.64800    0.74380    1.000
    C384     C        0.00000    0.61650    0.79950    1.000
    O102     O        0.00000    0.91720    0.44570    1.000
    O103     O        0.00000    0.78620    0.56000    1.000
    O104     O        0.00000    0.66680    0.54560    1.000
    Zn35     Zn       0.00000    0.81598    0.48294    1.000
    Zn36     Zn       0.00000    0.95680    0.52790    1.000
