# CIF file generated by openbabel 3.1.0, see https://openbabel.org
data_I
_chemical_name_common 'image0'
_cell_length_a 7.6225
_cell_length_b 7.7814
_cell_length_c 12.728
_cell_angle_alpha 90
_cell_angle_beta 90
_cell_angle_gamma 90
_space_group_name_H-M_alt 'P 1'
_space_group_name_Hall 'P 1'
loop_
    _symmetry_equiv_pos_as_xyz
    x,y,z
loop_
    _atom_site_label
    _atom_site_type_symbol
    _atom_site_fract_x
    _atom_site_fract_y
    _atom_site_fract_z
    _atom_site_occupancy
    Ni1      Ni       0.54104    0.49249    0.08105    1.000
    C1       C        0.44650    0.23540    0.24310    1.000
    H1       H        0.56040    0.19640    0.23240    1.000
    C2       C        0.27950    0.76980    0.02330    1.000
    H2       H        0.35570    0.79950    0.96920    1.000
    C3       C        0.31710    0.25780    0.96450    1.000
    H3       H        0.24440    0.27870    0.02180    1.000
    O1       O        0.39470    0.36050    0.19037    1.000
    O2       O        0.35300    0.15870    0.30999    1.000
    O3       O        0.31450    0.63820    0.07638    1.000
    O4       O        0.14870    0.86330    0.03855    1.000
    O5       O        0.45690    0.33870    0.96014    1.000
    O6       O        0.26510    0.14910    0.89765    1.000
    Ni2      Ni       0.95896    0.50751    0.58105    1.000
    C4       C        0.05350    0.76460    0.74310    1.000
    H4       H        0.93960    0.80360    0.73240    1.000
    C5       C        0.22050    0.23020    0.52330    1.000
    H5       H        0.14430    0.20050    0.46920    1.000
    C6       C        0.18290    0.74220    0.46450    1.000
    H6       H        0.25560    0.72130    0.52180    1.000
    O7       O        0.10530    0.63950    0.69037    1.000
    O8       O        0.14700    0.84130    0.80999    1.000
    O9       O        0.18550    0.36180    0.57638    1.000
    O10      O        0.35130    0.13670    0.53855    1.000
    O11      O        0.04310    0.66130    0.46014    1.000
    O12      O        0.23490    0.85090    0.39765    1.000
    Ni3      Ni       0.45896    0.99249    0.41895    1.000
    C7       C        0.55350    0.73540    0.25690    1.000
    H7       H        0.43960    0.69640    0.26760    1.000
    C8       C        0.72050    0.26980    0.47670    1.000
    H8       H        0.64430    0.29950    0.53080    1.000
    C9       C        0.68290    0.75780    0.53550    1.000
    H9       H        0.75560    0.77870    0.47820    1.000
    O13      O        0.60530    0.86050    0.30963    1.000
    O14      O        0.64700    0.65870    0.19001    1.000
    O15      O        0.68550    0.13820    0.42362    1.000
    O16      O        0.85130    0.36330    0.46145    1.000
    O17      O        0.54310    0.83870    0.53986    1.000
    O18      O        0.73490    0.64910    0.60235    1.000
    Ni4      Ni       0.04104    0.00751    0.91895    1.000
    C10      C        0.94650    0.26460    0.75690    1.000
    H10      H        0.06040    0.30360    0.76760    1.000
    C11      C        0.77950    0.73020    0.97670    1.000
    H11      H        0.85570    0.70050    0.03080    1.000
    C12      C        0.81710    0.24220    0.03550    1.000
    H12      H        0.74440    0.22130    0.97820    1.000
    O19      O        0.89470    0.13950    0.80963    1.000
    O20      O        0.85300    0.34130    0.69001    1.000
    O21      O        0.81450    0.86180    0.92362    1.000
    O22      O        0.64870    0.63670    0.96145    1.000
    O23      O        0.95690    0.16130    0.03986    1.000
    O24      O        0.76510    0.35090    0.10235    1.000
