# CIF file generated by openbabel 3.1.0, see https://openbabel.org
data_I
_chemical_name_common 'image0'
_cell_length_a 29.05
_cell_length_b 29.05
_cell_length_c 24.502
_cell_angle_alpha 90
_cell_angle_beta 90
_cell_angle_gamma 120
_space_group_name_H-M_alt 'P 1'
_space_group_name_Hall 'P 1'
loop_
    _symmetry_equiv_pos_as_xyz
    x,y,z
loop_
    _atom_site_label
    _atom_site_type_symbol
    _atom_site_fract_x
    _atom_site_fract_y
    _atom_site_fract_z
    _atom_site_occupancy
    O1       O        0.43550    0.71369    0.97916    1.000
    O2       O        0.39687    0.62551    0.97236    1.000
    C1       C        0.43422    0.67051    0.98566    1.000
    C2       C        0.48256    0.67253    0.01180    1.000
    C3       C        0.52890    0.71930    0.02110    1.000
    H1       H        0.53020    0.75130    0.01400    1.000
    C4       C        0.57410    0.71990    0.04090    1.000
    H2       H        0.60490    0.75230    0.04640    1.000
    C5       C        0.57430    0.67400    0.05230    1.000
    C6       C        0.52510    0.62680    0.04930    1.000
    H3       H        0.52240    0.59510    0.06110    1.000
    C7       C        0.48070    0.62660    0.02920    1.000
    H4       H        0.44870    0.59470    0.02720    1.000
    C8       C        0.62270    0.67240    0.06900    1.000
    C9       C        0.62190    0.62430    0.06830    1.000
    H5       H        0.59130    0.59350    0.05770    1.000
    C10      C        0.71350    0.56910    0.08540    1.000
    H6       H        0.74600    0.60060    0.08640    1.000
    C11      C        0.71170    0.52080    0.08590    1.000
    H7       H        0.74360    0.52080    0.08810    1.000
    O3       O        0.10217    0.04702    0.31249    1.000
    O4       O        0.06354    0.95884    0.30569    1.000
    C12      C        0.10089    0.00384    0.31899    1.000
    C13      C        0.14923    0.00586    0.34513    1.000
    C14      C        0.19557    0.05263    0.35443    1.000
    H8       H        0.19687    0.08463    0.34733    1.000
    C15      C        0.24077    0.05323    0.37423    1.000
    H9       H        0.27157    0.08563    0.37973    1.000
    C16      C        0.24097    0.00733    0.38563    1.000
    C17      C        0.19177    0.96013    0.38263    1.000
    H10      H        0.18907    0.92843    0.39443    1.000
    C18      C        0.14737    0.95993    0.36253    1.000
    H11      H        0.11537    0.92803    0.36053    1.000
    C19      C        0.28937    0.00573    0.40233    1.000
    C20      C        0.28857    0.95763    0.40163    1.000
    H12      H        0.25797    0.92683    0.39103    1.000
    C21      C        0.38017    0.90243    0.41873    1.000
    H13      H        0.41267    0.93393    0.41973    1.000
    C22      C        0.37837    0.85413    0.41923    1.000
    H14      H        0.41027    0.85413    0.42143    1.000
    O5       O        0.76883    0.38036    0.64583    1.000
    O6       O        0.73020    0.29218    0.63903    1.000
    C23      C        0.76755    0.33718    0.65233    1.000
    C24      C        0.81589    0.33920    0.67847    1.000
    C25      C        0.86223    0.38597    0.68777    1.000
    H15      H        0.86353    0.41797    0.68067    1.000
    C26      C        0.90743    0.38657    0.70757    1.000
    H16      H        0.93823    0.41897    0.71307    1.000
    C27      C        0.90763    0.34067    0.71897    1.000
    C28      C        0.85843    0.29347    0.71597    1.000
    H17      H        0.85573    0.26177    0.72777    1.000
    C29      C        0.81403    0.29327    0.69587    1.000
    H18      H        0.78203    0.26137    0.69387    1.000
    C30      C        0.95603    0.33907    0.73567    1.000
    C31      C        0.95523    0.29097    0.73497    1.000
    H19      H        0.92463    0.26017    0.72437    1.000
    C32      C        0.04683    0.23577    0.75207    1.000
    H20      H        0.07933    0.26727    0.75307    1.000
    C33      C        0.04503    0.18747    0.75257    1.000
    H21      H        0.07693    0.18747    0.75477    1.000
    O7       O        0.28631    0.72181    0.97916    1.000
    O8       O        0.37449    0.77136    0.97236    1.000
    C34      C        0.32949    0.76371    0.98566    1.000
    C35      C        0.32747    0.81003    0.01180    1.000
    C36      C        0.28070    0.80960    0.02110    1.000
    H22      H        0.24870    0.77890    0.01400    1.000
    C37      C        0.28010    0.85420    0.04090    1.000
    H23      H        0.24770    0.85260    0.04640    1.000
    C38      C        0.32600    0.90030    0.05230    1.000
    C39      C        0.37320    0.89830    0.04930    1.000
    H24      H        0.40490    0.92730    0.06110    1.000
    C40      C        0.37340    0.85410    0.02920    1.000
    H25      H        0.40530    0.85400    0.02720    1.000
    C41      C        0.32760    0.95030    0.06900    1.000
    C42      C        0.37570    0.99760    0.06830    1.000
    H26      H        0.40650    0.99780    0.05770    1.000
    C43      C        0.43090    0.14440    0.08540    1.000
    H27      H        0.39940    0.14540    0.08640    1.000
    C44      C        0.47920    0.19090    0.08590    1.000
    H28      H        0.47920    0.22280    0.08810    1.000
    O9       O        0.95298    0.05514    0.31249    1.000
    O10      O        0.04116    0.10469    0.30569    1.000
    C45      C        0.99616    0.09704    0.31899    1.000
    C46      C        0.99414    0.14336    0.34513    1.000
    C47      C        0.94737    0.14293    0.35443    1.000
    H29      H        0.91537    0.11223    0.34733    1.000
    C48      C        0.94677    0.18753    0.37423    1.000
    H30      H        0.91437    0.18593    0.37973    1.000
    C49      C        0.99267    0.23363    0.38563    1.000
    C50      C        0.03987    0.23163    0.38263    1.000
    H31      H        0.07157    0.26063    0.39443    1.000
    C51      C        0.04007    0.18743    0.36253    1.000
    H32      H        0.07197    0.18733    0.36053    1.000
    C52      C        0.99427    0.28363    0.40233    1.000
    C53      C        0.04237    0.33093    0.40163    1.000
    H33      H        0.07317    0.33113    0.39103    1.000
    C54      C        0.09757    0.47773    0.41873    1.000
    H34      H        0.06607    0.47873    0.41973    1.000
    C55      C        0.14587    0.52423    0.41923    1.000
    H35      H        0.14587    0.55613    0.42143    1.000
    O11      O        0.61964    0.38848    0.64583    1.000
    O12      O        0.70782    0.43803    0.63903    1.000
    C56      C        0.66282    0.43038    0.65233    1.000
    C57      C        0.66080    0.47670    0.67847    1.000
    C58      C        0.61403    0.47627    0.68777    1.000
    H36      H        0.58203    0.44557    0.68067    1.000
    C59      C        0.61343    0.52087    0.70757    1.000
    H37      H        0.58103    0.51927    0.71307    1.000
    C60      C        0.65933    0.56697    0.71897    1.000
    C61      C        0.70653    0.56497    0.71597    1.000
    H38      H        0.73823    0.59397    0.72777    1.000
    C62      C        0.70673    0.52077    0.69587    1.000
    H39      H        0.73863    0.52067    0.69387    1.000
    C63      C        0.66093    0.61697    0.73567    1.000
    C64      C        0.70903    0.66427    0.73497    1.000
    H40      H        0.73983    0.66447    0.72437    1.000
    C65      C        0.76423    0.81107    0.75207    1.000
    H41      H        0.73273    0.81207    0.75307    1.000
    C66      C        0.81253    0.85757    0.75257    1.000
    H42      H        0.81253    0.88947    0.75477    1.000
    O13      O        0.27819    0.56450    0.97916    1.000
    O14      O        0.22864    0.60313    0.97236    1.000
    C67      C        0.23629    0.56578    0.98566    1.000
    C68      C        0.18997    0.51744    0.01180    1.000
    C69      C        0.19040    0.47110    0.02110    1.000
    H43      H        0.22110    0.46980    0.01400    1.000
    C70      C        0.14580    0.42590    0.04090    1.000
    H44      H        0.14740    0.39510    0.04640    1.000
    C71      C        0.09970    0.42570    0.05230    1.000
    C72      C        0.10170    0.47490    0.04930    1.000
    H45      H        0.07270    0.47760    0.06110    1.000
    C73      C        0.14590    0.51930    0.02920    1.000
    H46      H        0.14600    0.55130    0.02720    1.000
    C74      C        0.04970    0.37730    0.06900    1.000
    C75      C        0.00240    0.37810    0.06830    1.000
    H47      H        0.00220    0.40870    0.05770    1.000
    C76      C        0.85560    0.28650    0.08540    1.000
    H48      H        0.85460    0.25400    0.08640    1.000
    C77      C        0.80910    0.28830    0.08590    1.000
    H49      H        0.77720    0.25640    0.08810    1.000
    O15      O        0.94486    0.89783    0.31249    1.000
    O16      O        0.89531    0.93646    0.30569    1.000
    C78      C        0.90296    0.89911    0.31899    1.000
    C79      C        0.85664    0.85077    0.34513    1.000
    C80      C        0.85707    0.80443    0.35443    1.000
    H50      H        0.88777    0.80313    0.34733    1.000
    C81      C        0.81247    0.75923    0.37423    1.000
    H51      H        0.81407    0.72843    0.37973    1.000
    C82      C        0.76637    0.75903    0.38563    1.000
    C83      C        0.76837    0.80823    0.38263    1.000
    H52      H        0.73937    0.81093    0.39443    1.000
    C84      C        0.81257    0.85263    0.36253    1.000
    H53      H        0.81267    0.88463    0.36053    1.000
    C85      C        0.71637    0.71063    0.40233    1.000
    C86      C        0.66907    0.71143    0.40163    1.000
    H54      H        0.66887    0.74203    0.39103    1.000
    C87      C        0.52227    0.61983    0.41873    1.000
    H55      H        0.52127    0.58733    0.41973    1.000
    C88      C        0.47577    0.62163    0.41923    1.000
    H56      H        0.44387    0.58973    0.42143    1.000
    O17      O        0.61152    0.23117    0.64583    1.000
    O18      O        0.56197    0.26980    0.63903    1.000
    C89      C        0.56962    0.23245    0.65233    1.000
    C90      C        0.52330    0.18411    0.67847    1.000
    C91      C        0.52373    0.13777    0.68777    1.000
    H57      H        0.55443    0.13647    0.68067    1.000
    C92      C        0.47913    0.09257    0.70757    1.000
    H58      H        0.48073    0.06177    0.71307    1.000
    C93      C        0.43303    0.09237    0.71897    1.000
    C94      C        0.43503    0.14157    0.71597    1.000
    H59      H        0.40603    0.14427    0.72777    1.000
    C95      C        0.47923    0.18597    0.69587    1.000
    H60      H        0.47933    0.21797    0.69387    1.000
    C96      C        0.38303    0.04397    0.73567    1.000
    C97      C        0.33573    0.04477    0.73497    1.000
    H61      H        0.33553    0.07537    0.72437    1.000
    C98      C        0.18893    0.95317    0.75207    1.000
    H62      H        0.18793    0.92067    0.75307    1.000
    C99      C        0.14243    0.95497    0.75257    1.000
    H63      H        0.11053    0.92307    0.75477    1.000
    O19      O        0.71369    0.43550    0.52084    1.000
    O20      O        0.62551    0.39687    0.52764    1.000
    C100     C        0.67051    0.43422    0.51434    1.000
    C101     C        0.67253    0.48256    0.48820    1.000
    C102     C        0.71930    0.52890    0.47890    1.000
    H64      H        0.75130    0.53020    0.48600    1.000
    C103     C        0.71990    0.57410    0.45910    1.000
    H65      H        0.75230    0.60490    0.45360    1.000
    C104     C        0.67400    0.57430    0.44770    1.000
    C105     C        0.62680    0.52510    0.45070    1.000
    H66      H        0.59510    0.52240    0.43890    1.000
    C106     C        0.62660    0.48070    0.47080    1.000
    H67      H        0.59470    0.44870    0.47280    1.000
    C107     C        0.67240    0.62270    0.43100    1.000
    C108     C        0.62430    0.62190    0.43170    1.000
    H68      H        0.59350    0.59130    0.44230    1.000
    C109     C        0.56910    0.71350    0.41460    1.000
    H69      H        0.60060    0.74600    0.41360    1.000
    C110     C        0.52080    0.71170    0.41410    1.000
    H70      H        0.52080    0.74360    0.41190    1.000
    O21      O        0.38036    0.76883    0.85417    1.000
    O22      O        0.29218    0.73020    0.86097    1.000
    C111     C        0.33718    0.76755    0.84767    1.000
    C112     C        0.33920    0.81589    0.82153    1.000
    C113     C        0.38597    0.86223    0.81223    1.000
    H71      H        0.41797    0.86353    0.81933    1.000
    C114     C        0.38657    0.90743    0.79243    1.000
    H72      H        0.41897    0.93823    0.78693    1.000
    C115     C        0.34067    0.90763    0.78103    1.000
    C116     C        0.29347    0.85843    0.78403    1.000
    H73      H        0.26177    0.85573    0.77223    1.000
    C117     C        0.29327    0.81403    0.80413    1.000
    H74      H        0.26137    0.78203    0.80613    1.000
    C118     C        0.33907    0.95603    0.76433    1.000
    C119     C        0.29097    0.95523    0.76503    1.000
    H75      H        0.26017    0.92463    0.77563    1.000
    C120     C        0.23577    0.04683    0.74793    1.000
    H76      H        0.26727    0.07933    0.74693    1.000
    C121     C        0.18747    0.04503    0.74743    1.000
    H77      H        0.18747    0.07693    0.74523    1.000
    O23      O        0.04702    0.10217    0.18751    1.000
    O24      O        0.95884    0.06354    0.19431    1.000
    C122     C        0.00384    0.10089    0.18101    1.000
    C123     C        0.00586    0.14923    0.15487    1.000
    C124     C        0.05263    0.19557    0.14557    1.000
    H78      H        0.08463    0.19687    0.15267    1.000
    C125     C        0.05323    0.24077    0.12577    1.000
    H79      H        0.08563    0.27157    0.12027    1.000
    C126     C        0.00733    0.24097    0.11437    1.000
    C127     C        0.96013    0.19177    0.11737    1.000
    H80      H        0.92843    0.18907    0.10557    1.000
    C128     C        0.95993    0.14737    0.13747    1.000
    H81      H        0.92803    0.11537    0.13947    1.000
    C129     C        0.00573    0.28937    0.09767    1.000
    C130     C        0.95763    0.28857    0.09837    1.000
    H82      H        0.92683    0.25797    0.10897    1.000
    C131     C        0.90243    0.38017    0.08127    1.000
    H83      H        0.93393    0.41267    0.08027    1.000
    C132     C        0.85413    0.37837    0.08077    1.000
    H84      H        0.85413    0.41027    0.07857    1.000
    O25      O        0.72181    0.28631    0.52084    1.000
    O26      O        0.77136    0.37449    0.52764    1.000
    C133     C        0.76371    0.32949    0.51434    1.000
    C134     C        0.81003    0.32747    0.48820    1.000
    C135     C        0.80960    0.28070    0.47890    1.000
    H85      H        0.77890    0.24870    0.48600    1.000
    C136     C        0.85420    0.28010    0.45910    1.000
    H86      H        0.85260    0.24770    0.45360    1.000
    C137     C        0.90030    0.32600    0.44770    1.000
    C138     C        0.89830    0.37320    0.45070    1.000
    H87      H        0.92730    0.40490    0.43890    1.000
    C139     C        0.85410    0.37340    0.47080    1.000
    H88      H        0.85400    0.40530    0.47280    1.000
    C140     C        0.95030    0.32760    0.43100    1.000
    C141     C        0.99760    0.37570    0.43170    1.000
    H89      H        0.99780    0.40650    0.44230    1.000
    C142     C        0.14440    0.43090    0.41460    1.000
    H90      H        0.14540    0.39940    0.41360    1.000
    C143     C        0.19090    0.47920    0.41410    1.000
    H91      H        0.22280    0.47920    0.41190    1.000
    O27      O        0.38848    0.61964    0.85417    1.000
    O28      O        0.43803    0.70782    0.86097    1.000
    C144     C        0.43038    0.66282    0.84767    1.000
    C145     C        0.47670    0.66080    0.82153    1.000
    C146     C        0.47627    0.61403    0.81223    1.000
    H92      H        0.44557    0.58203    0.81933    1.000
    C147     C        0.52087    0.61343    0.79243    1.000
    H93      H        0.51927    0.58103    0.78693    1.000
    C148     C        0.56697    0.65933    0.78103    1.000
    C149     C        0.56497    0.70653    0.78403    1.000
    H94      H        0.59397    0.73823    0.77223    1.000
    C150     C        0.52077    0.70673    0.80413    1.000
    H95      H        0.52067    0.73863    0.80613    1.000
    C151     C        0.61697    0.66093    0.76433    1.000
    C152     C        0.66427    0.70903    0.76503    1.000
    H96      H        0.66447    0.73983    0.77563    1.000
    C153     C        0.81107    0.76423    0.74793    1.000
    H97      H        0.81207    0.73273    0.74693    1.000
    C154     C        0.85757    0.81253    0.74743    1.000
    H98      H        0.88947    0.81253    0.74523    1.000
    O29      O        0.05514    0.95298    0.18751    1.000
    O30      O        0.10469    0.04116    0.19431    1.000
    C155     C        0.09704    0.99616    0.18101    1.000
    C156     C        0.14336    0.99414    0.15487    1.000
    C157     C        0.14293    0.94737    0.14557    1.000
    H99      H        0.11223    0.91537    0.15267    1.000
    C158     C        0.18753    0.94677    0.12577    1.000
    H100     H        0.18593    0.91437    0.12027    1.000
    C159     C        0.23363    0.99267    0.11437    1.000
    C160     C        0.23163    0.03987    0.11737    1.000
    H101     H        0.26063    0.07157    0.10557    1.000
    C161     C        0.18743    0.04007    0.13747    1.000
    H102     H        0.18733    0.07197    0.13947    1.000
    C162     C        0.28363    0.99427    0.09767    1.000
    C163     C        0.33093    0.04237    0.09837    1.000
    H103     H        0.33113    0.07317    0.10897    1.000
    C164     C        0.47773    0.09757    0.08127    1.000
    H104     H        0.47873    0.06607    0.08027    1.000
    C165     C        0.52423    0.14587    0.08077    1.000
    H105     H        0.55613    0.14587    0.07857    1.000
    O31      O        0.56450    0.27819    0.52084    1.000
    O32      O        0.60313    0.22864    0.52764    1.000
    C166     C        0.56578    0.23629    0.51434    1.000
    C167     C        0.51744    0.18997    0.48820    1.000
    C168     C        0.47110    0.19040    0.47890    1.000
    H106     H        0.46980    0.22110    0.48600    1.000
    C169     C        0.42590    0.14580    0.45910    1.000
    H107     H        0.39510    0.14740    0.45360    1.000
    C170     C        0.42570    0.09970    0.44770    1.000
    C171     C        0.47490    0.10170    0.45070    1.000
    H108     H        0.47760    0.07270    0.43890    1.000
    C172     C        0.51930    0.14590    0.47080    1.000
    H109     H        0.55130    0.14600    0.47280    1.000
    C173     C        0.37730    0.04970    0.43100    1.000
    C174     C        0.37810    0.00240    0.43170    1.000
    H110     H        0.40870    0.00220    0.44230    1.000
    C175     C        0.28650    0.85560    0.41460    1.000
    H111     H        0.25400    0.85460    0.41360    1.000
    C176     C        0.28830    0.80910    0.41410    1.000
    H112     H        0.25640    0.77720    0.41190    1.000
    O33      O        0.23117    0.61152    0.85417    1.000
    O34      O        0.26980    0.56197    0.86097    1.000
    C177     C        0.23245    0.56962    0.84767    1.000
    C178     C        0.18411    0.52330    0.82153    1.000
    C179     C        0.13777    0.52373    0.81223    1.000
    H113     H        0.13647    0.55443    0.81933    1.000
    C180     C        0.09257    0.47913    0.79243    1.000
    H114     H        0.06177    0.48073    0.78693    1.000
    C181     C        0.09237    0.43303    0.78103    1.000
    C182     C        0.14157    0.43503    0.78403    1.000
    H115     H        0.14427    0.40603    0.77223    1.000
    C183     C        0.18597    0.47923    0.80413    1.000
    H116     H        0.21797    0.47933    0.80613    1.000
    C184     C        0.04397    0.38303    0.76433    1.000
    C185     C        0.04477    0.33573    0.76503    1.000
    H117     H        0.07537    0.33553    0.77563    1.000
    C186     C        0.95317    0.18893    0.74793    1.000
    H118     H        0.92067    0.18793    0.74693    1.000
    C187     C        0.95497    0.14243    0.74743    1.000
    H119     H        0.92307    0.11053    0.74523    1.000
    O35      O        0.89783    0.94486    0.18751    1.000
    O36      O        0.93646    0.89531    0.19431    1.000
    C188     C        0.89911    0.90296    0.18101    1.000
    C189     C        0.85077    0.85664    0.15487    1.000
    C190     C        0.80443    0.85707    0.14557    1.000
    H120     H        0.80313    0.88777    0.15267    1.000
    C191     C        0.75923    0.81247    0.12577    1.000
    H121     H        0.72843    0.81407    0.12027    1.000
    C192     C        0.75903    0.76637    0.11437    1.000
    C193     C        0.80823    0.76837    0.11737    1.000
    H122     H        0.81093    0.73937    0.10557    1.000
    C194     C        0.85263    0.81257    0.13747    1.000
    H123     H        0.88463    0.81267    0.13947    1.000
    C195     C        0.71063    0.71637    0.09767    1.000
    C196     C        0.71143    0.66907    0.09837    1.000
    H124     H        0.74203    0.66887    0.10897    1.000
    C197     C        0.61983    0.52227    0.08127    1.000
    H125     H        0.58733    0.52127    0.08027    1.000
    C198     C        0.62163    0.47577    0.08077    1.000
    H126     H        0.58973    0.44387    0.07857    1.000
    O37      O        0.56450    0.28631    0.02084    1.000
    O38      O        0.60313    0.37449    0.02764    1.000
    C199     C        0.56578    0.32949    0.01434    1.000
    C200     C        0.51744    0.32747    0.98820    1.000
    C201     C        0.47110    0.28070    0.97890    1.000
    H127     H        0.46980    0.24870    0.98600    1.000
    C202     C        0.42590    0.28010    0.95910    1.000
    H128     H        0.39510    0.24770    0.95360    1.000
    C203     C        0.42570    0.32600    0.94770    1.000
    C204     C        0.47490    0.37320    0.95070    1.000
    H129     H        0.47760    0.40490    0.93890    1.000
    C205     C        0.51930    0.37340    0.97080    1.000
    H130     H        0.55130    0.40530    0.97280    1.000
    C206     C        0.37730    0.32760    0.93100    1.000
    C207     C        0.37810    0.37570    0.93170    1.000
    H131     H        0.40870    0.40650    0.94230    1.000
    C208     C        0.28650    0.43090    0.91460    1.000
    H132     H        0.25400    0.39940    0.91360    1.000
    C209     C        0.28830    0.47920    0.91410    1.000
    H133     H        0.25640    0.47920    0.91190    1.000
    O39      O        0.23117    0.61964    0.35417    1.000
    O40      O        0.26980    0.70782    0.36097    1.000
    C210     C        0.23245    0.66282    0.34767    1.000
    C211     C        0.18411    0.66080    0.32153    1.000
    C212     C        0.13777    0.61403    0.31223    1.000
    H134     H        0.13647    0.58203    0.31933    1.000
    C213     C        0.09257    0.61343    0.29243    1.000
    H135     H        0.06177    0.58103    0.28693    1.000
    C214     C        0.09237    0.65933    0.28103    1.000
    C215     C        0.14157    0.70653    0.28403    1.000
    H136     H        0.14427    0.73823    0.27223    1.000
    C216     C        0.18597    0.70673    0.30413    1.000
    H137     H        0.21797    0.73863    0.30613    1.000
    C217     C        0.04397    0.66093    0.26433    1.000
    C218     C        0.04477    0.70903    0.26503    1.000
    H138     H        0.07537    0.73983    0.27563    1.000
    C219     C        0.95317    0.76423    0.24793    1.000
    H139     H        0.92067    0.73273    0.24693    1.000
    C220     C        0.95497    0.81253    0.24743    1.000
    H140     H        0.92307    0.81253    0.24523    1.000
    O41      O        0.89783    0.95298    0.68751    1.000
    O42      O        0.93646    0.04116    0.69431    1.000
    C221     C        0.89911    0.99616    0.68101    1.000
    C222     C        0.85077    0.99414    0.65487    1.000
    C223     C        0.80443    0.94737    0.64557    1.000
    H141     H        0.80313    0.91537    0.65267    1.000
    C224     C        0.75923    0.94677    0.62577    1.000
    H142     H        0.72843    0.91437    0.62027    1.000
    C225     C        0.75903    0.99267    0.61437    1.000
    C226     C        0.80823    0.03987    0.61737    1.000
    H143     H        0.81093    0.07157    0.60557    1.000
    C227     C        0.85263    0.04007    0.63747    1.000
    H144     H        0.88463    0.07197    0.63947    1.000
    C228     C        0.71063    0.99427    0.59767    1.000
    C229     C        0.71143    0.04237    0.59837    1.000
    H145     H        0.74203    0.07317    0.60897    1.000
    C230     C        0.61983    0.09757    0.58127    1.000
    H146     H        0.58733    0.06607    0.58027    1.000
    C231     C        0.62163    0.14587    0.58077    1.000
    H147     H        0.58973    0.14587    0.57857    1.000
    O43      O        0.71369    0.27819    0.02084    1.000
    O44      O        0.62551    0.22864    0.02764    1.000
    C232     C        0.67051    0.23629    0.01434    1.000
    C233     C        0.67253    0.18997    0.98820    1.000
    C234     C        0.71930    0.19040    0.97890    1.000
    H148     H        0.75130    0.22110    0.98600    1.000
    C235     C        0.71990    0.14580    0.95910    1.000
    H149     H        0.75230    0.14740    0.95360    1.000
    C236     C        0.67400    0.09970    0.94770    1.000
    C237     C        0.62680    0.10170    0.95070    1.000
    H150     H        0.59510    0.07270    0.93890    1.000
    C238     C        0.62660    0.14590    0.97080    1.000
    H151     H        0.59470    0.14600    0.97280    1.000
    C239     C        0.67240    0.04970    0.93100    1.000
    C240     C        0.62430    0.00240    0.93170    1.000
    H152     H        0.59350    0.00220    0.94230    1.000
    C241     C        0.56910    0.85560    0.91460    1.000
    H153     H        0.60060    0.85460    0.91360    1.000
    C242     C        0.52080    0.80910    0.91410    1.000
    H154     H        0.52080    0.77720    0.91190    1.000
    O45      O        0.38036    0.61152    0.35417    1.000
    O46      O        0.29218    0.56197    0.36097    1.000
    C243     C        0.33718    0.56962    0.34767    1.000
    C244     C        0.33920    0.52330    0.32153    1.000
    C245     C        0.38597    0.52373    0.31223    1.000
    H155     H        0.41797    0.55443    0.31933    1.000
    C246     C        0.38657    0.47913    0.29243    1.000
    H156     H        0.41897    0.48073    0.28693    1.000
    C247     C        0.34067    0.43303    0.28103    1.000
    C248     C        0.29347    0.43503    0.28403    1.000
    H157     H        0.26177    0.40603    0.27223    1.000
    C249     C        0.29327    0.47923    0.30413    1.000
    H158     H        0.26137    0.47933    0.30613    1.000
    C250     C        0.33907    0.38303    0.26433    1.000
    C251     C        0.29097    0.33573    0.26503    1.000
    H159     H        0.26017    0.33553    0.27563    1.000
    C252     C        0.23577    0.18893    0.24793    1.000
    H160     H        0.26727    0.18793    0.24693    1.000
    C253     C        0.18747    0.14243    0.24743    1.000
    H161     H        0.18747    0.11053    0.24523    1.000
    O47      O        0.04702    0.94486    0.68751    1.000
    O48      O        0.95884    0.89531    0.69431    1.000
    C254     C        0.00384    0.90296    0.68101    1.000
    C255     C        0.00586    0.85664    0.65487    1.000
    C256     C        0.05263    0.85707    0.64557    1.000
    H162     H        0.08463    0.88777    0.65267    1.000
    C257     C        0.05323    0.81247    0.62577    1.000
    H163     H        0.08563    0.81407    0.62027    1.000
    C258     C        0.00733    0.76637    0.61437    1.000
    C259     C        0.96013    0.76837    0.61737    1.000
    H164     H        0.92843    0.73937    0.60557    1.000
    C260     C        0.95993    0.81257    0.63747    1.000
    H165     H        0.92803    0.81267    0.63947    1.000
    C261     C        0.00573    0.71637    0.59767    1.000
    C262     C        0.95763    0.66907    0.59837    1.000
    H166     H        0.92683    0.66887    0.60897    1.000
    C263     C        0.90243    0.52227    0.58127    1.000
    H167     H        0.93393    0.52127    0.58027    1.000
    C264     C        0.85413    0.47577    0.58077    1.000
    H168     H        0.85413    0.44387    0.57857    1.000
    O49      O        0.72181    0.43550    0.02084    1.000
    O50      O        0.77136    0.39687    0.02764    1.000
    C265     C        0.76371    0.43422    0.01434    1.000
    C266     C        0.81003    0.48256    0.98820    1.000
    C267     C        0.80960    0.52890    0.97890    1.000
    H169     H        0.77890    0.53020    0.98600    1.000
    C268     C        0.85420    0.57410    0.95910    1.000
    H170     H        0.85260    0.60490    0.95360    1.000
    C269     C        0.90030    0.57430    0.94770    1.000
    C270     C        0.89830    0.52510    0.95070    1.000
    H171     H        0.92730    0.52240    0.93890    1.000
    C271     C        0.85410    0.48070    0.97080    1.000
    H172     H        0.85400    0.44870    0.97280    1.000
    C272     C        0.95030    0.62270    0.93100    1.000
    C273     C        0.99760    0.62190    0.93170    1.000
    H173     H        0.99780    0.59130    0.94230    1.000
    C274     C        0.14440    0.71350    0.91460    1.000
    H174     H        0.14540    0.74600    0.91360    1.000
    C275     C        0.19090    0.71170    0.91410    1.000
    H175     H        0.22280    0.74360    0.91190    1.000
    O51      O        0.38848    0.76883    0.35417    1.000
    O52      O        0.43803    0.73020    0.36097    1.000
    C276     C        0.43038    0.76755    0.34767    1.000
    C277     C        0.47670    0.81589    0.32153    1.000
    C278     C        0.47627    0.86223    0.31223    1.000
    H176     H        0.44557    0.86353    0.31933    1.000
    C279     C        0.52087    0.90743    0.29243    1.000
    H177     H        0.51927    0.93823    0.28693    1.000
    C280     C        0.56697    0.90763    0.28103    1.000
    C281     C        0.56497    0.85843    0.28403    1.000
    H178     H        0.59397    0.85573    0.27223    1.000
    C282     C        0.52077    0.81403    0.30413    1.000
    H179     H        0.52067    0.78203    0.30613    1.000
    C283     C        0.61697    0.95603    0.26433    1.000
    C284     C        0.66427    0.95523    0.26503    1.000
    H180     H        0.66447    0.92463    0.27563    1.000
    C285     C        0.81107    0.04683    0.24793    1.000
    H181     H        0.81207    0.07933    0.24693    1.000
    C286     C        0.85757    0.04503    0.24743    1.000
    H182     H        0.88947    0.07693    0.24523    1.000
    O53      O        0.05514    0.10217    0.68751    1.000
    O54      O        0.10469    0.06354    0.69431    1.000
    C287     C        0.09704    0.10089    0.68101    1.000
    C288     C        0.14336    0.14923    0.65487    1.000
    C289     C        0.14293    0.19557    0.64557    1.000
    H183     H        0.11223    0.19687    0.65267    1.000
    C290     C        0.18753    0.24077    0.62577    1.000
    H184     H        0.18593    0.27157    0.62027    1.000
    C291     C        0.23363    0.24097    0.61437    1.000
    C292     C        0.23163    0.19177    0.61737    1.000
    H185     H        0.26063    0.18907    0.60557    1.000
    C293     C        0.18743    0.14737    0.63747    1.000
    H186     H        0.18733    0.11537    0.63947    1.000
    C294     C        0.28363    0.28937    0.59767    1.000
    C295     C        0.33093    0.28857    0.59837    1.000
    H187     H        0.33113    0.25797    0.60897    1.000
    C296     C        0.47773    0.38017    0.58127    1.000
    H188     H        0.47873    0.41267    0.58027    1.000
    C297     C        0.52423    0.37837    0.58077    1.000
    H189     H        0.55613    0.41027    0.57857    1.000
    O55      O        0.28631    0.56450    0.47916    1.000
    O56      O        0.37449    0.60313    0.47236    1.000
    C298     C        0.32949    0.56578    0.48566    1.000
    C299     C        0.32747    0.51744    0.51180    1.000
    C300     C        0.28070    0.47110    0.52110    1.000
    H190     H        0.24870    0.46980    0.51400    1.000
    C301     C        0.28010    0.42590    0.54090    1.000
    H191     H        0.24770    0.39510    0.54640    1.000
    C302     C        0.32600    0.42570    0.55230    1.000
    C303     C        0.37320    0.47490    0.54930    1.000
    H192     H        0.40490    0.47760    0.56110    1.000
    C304     C        0.37340    0.51930    0.52920    1.000
    H193     H        0.40530    0.55130    0.52720    1.000
    C305     C        0.32760    0.37730    0.56900    1.000
    C306     C        0.37570    0.37810    0.56830    1.000
    H194     H        0.40650    0.40870    0.55770    1.000
    C307     C        0.43090    0.28650    0.58540    1.000
    H195     H        0.39940    0.25400    0.58640    1.000
    C308     C        0.47920    0.28830    0.58590    1.000
    H196     H        0.47920    0.25640    0.58810    1.000
    O57      O        0.95298    0.89783    0.81249    1.000
    O58      O        0.04116    0.93646    0.80569    1.000
    C309     C        0.99616    0.89911    0.81899    1.000
    C310     C        0.99414    0.85077    0.84513    1.000
    C311     C        0.94737    0.80443    0.85443    1.000
    H197     H        0.91537    0.80313    0.84733    1.000
    C312     C        0.94677    0.75923    0.87423    1.000
    H198     H        0.91437    0.72843    0.87973    1.000
    C313     C        0.99267    0.75903    0.88563    1.000
    C314     C        0.03987    0.80823    0.88263    1.000
    H199     H        0.07157    0.81093    0.89443    1.000
    C315     C        0.04007    0.85263    0.86253    1.000
    H200     H        0.07197    0.88463    0.86053    1.000
    C316     C        0.99427    0.71063    0.90233    1.000
    C317     C        0.04237    0.71143    0.90163    1.000
    H201     H        0.07317    0.74203    0.89103    1.000
    C318     C        0.09757    0.61983    0.91873    1.000
    H202     H        0.06607    0.58733    0.91973    1.000
    C319     C        0.14587    0.62163    0.91923    1.000
    H203     H        0.14587    0.58973    0.92143    1.000
    O59      O        0.61964    0.23117    0.14583    1.000
    O60      O        0.70782    0.26980    0.13903    1.000
    C320     C        0.66282    0.23245    0.15233    1.000
    C321     C        0.66080    0.18411    0.17847    1.000
    C322     C        0.61403    0.13777    0.18777    1.000
    H204     H        0.58203    0.13647    0.18067    1.000
    C323     C        0.61343    0.09257    0.20757    1.000
    H205     H        0.58103    0.06177    0.21307    1.000
    C324     C        0.65933    0.09237    0.21897    1.000
    C325     C        0.70653    0.14157    0.21597    1.000
    H206     H        0.73823    0.14427    0.22777    1.000
    C326     C        0.70673    0.18597    0.19587    1.000
    H207     H        0.73863    0.21797    0.19387    1.000
    C327     C        0.66093    0.04397    0.23567    1.000
    C328     C        0.70903    0.04477    0.23497    1.000
    H208     H        0.73983    0.07537    0.22437    1.000
    C329     C        0.76423    0.95317    0.25207    1.000
    H209     H        0.73273    0.92067    0.25307    1.000
    C330     C        0.81253    0.95497    0.25257    1.000
    H210     H        0.81253    0.92307    0.25477    1.000
    O61      O        0.27819    0.71369    0.47916    1.000
    O62      O        0.22864    0.62551    0.47236    1.000
    C331     C        0.23629    0.67051    0.48566    1.000
    C332     C        0.18997    0.67253    0.51180    1.000
    C333     C        0.19040    0.71930    0.52110    1.000
    H211     H        0.22110    0.75130    0.51400    1.000
    C334     C        0.14580    0.71990    0.54090    1.000
    H212     H        0.14740    0.75230    0.54640    1.000
    C335     C        0.09970    0.67400    0.55230    1.000
    C336     C        0.10170    0.62680    0.54930    1.000
    H213     H        0.07270    0.59510    0.56110    1.000
    C337     C        0.14590    0.62660    0.52920    1.000
    H214     H        0.14600    0.59470    0.52720    1.000
    C338     C        0.04970    0.67240    0.56900    1.000
    C339     C        0.00240    0.62430    0.56830    1.000
    H215     H        0.00220    0.59350    0.55770    1.000
    C340     C        0.85560    0.56910    0.58540    1.000
    H216     H        0.85460    0.60060    0.58640    1.000
    C341     C        0.80910    0.52080    0.58590    1.000
    H217     H        0.77720    0.52080    0.58810    1.000
    O63      O        0.94486    0.04702    0.81249    1.000
    O64      O        0.89531    0.95884    0.80569    1.000
    C342     C        0.90296    0.00384    0.81899    1.000
    C343     C        0.85664    0.00586    0.84513    1.000
    C344     C        0.85707    0.05263    0.85443    1.000
    H218     H        0.88777    0.08463    0.84733    1.000
    C345     C        0.81247    0.05323    0.87423    1.000
    H219     H        0.81407    0.08563    0.87973    1.000
    C346     C        0.76637    0.00733    0.88563    1.000
    C347     C        0.76837    0.96013    0.88263    1.000
    H220     H        0.73937    0.92843    0.89443    1.000
    C348     C        0.81257    0.95993    0.86253    1.000
    H221     H        0.81267    0.92803    0.86053    1.000
    C349     C        0.71637    0.00573    0.90233    1.000
    C350     C        0.66907    0.95763    0.90163    1.000
    H222     H        0.66887    0.92683    0.89103    1.000
    C351     C        0.52227    0.90243    0.91873    1.000
    H223     H        0.52127    0.93393    0.91973    1.000
    C352     C        0.47577    0.85413    0.91923    1.000
    H224     H        0.44387    0.85413    0.92143    1.000
    O65      O        0.61152    0.38036    0.14583    1.000
    O66      O        0.56197    0.29218    0.13903    1.000
    C353     C        0.56962    0.33718    0.15233    1.000
    C354     C        0.52330    0.33920    0.17847    1.000
    C355     C        0.52373    0.38597    0.18777    1.000
    H225     H        0.55443    0.41797    0.18067    1.000
    C356     C        0.47913    0.38657    0.20757    1.000
    H226     H        0.48073    0.41897    0.21307    1.000
    C357     C        0.43303    0.34067    0.21897    1.000
    C358     C        0.43503    0.29347    0.21597    1.000
    H227     H        0.40603    0.26177    0.22777    1.000
    C359     C        0.47923    0.29327    0.19587    1.000
    H228     H        0.47933    0.26137    0.19387    1.000
    C360     C        0.38303    0.33907    0.23567    1.000
    C361     C        0.33573    0.29097    0.23497    1.000
    H229     H        0.33553    0.26017    0.22437    1.000
    C362     C        0.18893    0.23577    0.25207    1.000
    H230     H        0.18793    0.26727    0.25307    1.000
    C363     C        0.14243    0.18747    0.25257    1.000
    H231     H        0.11053    0.18747    0.25477    1.000
    O67      O        0.43550    0.72181    0.47916    1.000
    O68      O        0.39687    0.77136    0.47236    1.000
    C364     C        0.43422    0.76371    0.48566    1.000
    C365     C        0.48256    0.81003    0.51180    1.000
    C366     C        0.52890    0.80960    0.52110    1.000
    H232     H        0.53020    0.77890    0.51400    1.000
    C367     C        0.57410    0.85420    0.54090    1.000
    H233     H        0.60490    0.85260    0.54640    1.000
    C368     C        0.57430    0.90030    0.55230    1.000
    C369     C        0.52510    0.89830    0.54930    1.000
    H234     H        0.52240    0.92730    0.56110    1.000
    C370     C        0.48070    0.85410    0.52920    1.000
    H235     H        0.44870    0.85400    0.52720    1.000
    C371     C        0.62270    0.95030    0.56900    1.000
    C372     C        0.62190    0.99760    0.56830    1.000
    H236     H        0.59130    0.99780    0.55770    1.000
    C373     C        0.71350    0.14440    0.58540    1.000
    H237     H        0.74600    0.14540    0.58640    1.000
    C374     C        0.71170    0.19090    0.58590    1.000
    H238     H        0.74360    0.22280    0.58810    1.000
    O69      O        0.10217    0.05514    0.81249    1.000
    O70      O        0.06354    0.10469    0.80569    1.000
    C375     C        0.10089    0.09704    0.81899    1.000
    C376     C        0.14923    0.14336    0.84513    1.000
    C377     C        0.19557    0.14293    0.85443    1.000
    H239     H        0.19687    0.11223    0.84733    1.000
    C378     C        0.24077    0.18753    0.87423    1.000
    H240     H        0.27157    0.18593    0.87973    1.000
    C379     C        0.24097    0.23363    0.88563    1.000
    C380     C        0.19177    0.23163    0.88263    1.000
    H241     H        0.18907    0.26063    0.89443    1.000
    C381     C        0.14737    0.18743    0.86253    1.000
    H242     H        0.11537    0.18733    0.86053    1.000
    C382     C        0.28937    0.28363    0.90233    1.000
    C383     C        0.28857    0.33093    0.90163    1.000
    H243     H        0.25797    0.33113    0.89103    1.000
    C384     C        0.38017    0.47773    0.91873    1.000
    H244     H        0.41267    0.47873    0.91973    1.000
    C385     C        0.37837    0.52423    0.91923    1.000
    H245     H        0.41027    0.55613    0.92143    1.000
    O71      O        0.76883    0.38848    0.14583    1.000
    O72      O        0.73020    0.43803    0.13903    1.000
    C386     C        0.76755    0.43038    0.15233    1.000
    C387     C        0.81589    0.47670    0.17847    1.000
    C388     C        0.86223    0.47627    0.18777    1.000
    H246     H        0.86353    0.44557    0.18067    1.000
    C389     C        0.90743    0.52087    0.20757    1.000
    H247     H        0.93823    0.51927    0.21307    1.000
    C390     C        0.90763    0.56697    0.21897    1.000
    C391     C        0.85843    0.56497    0.21597    1.000
    H248     H        0.85573    0.59397    0.22777    1.000
    C392     C        0.81403    0.52077    0.19587    1.000
    H249     H        0.78203    0.52067    0.19387    1.000
    C393     C        0.95603    0.61697    0.23567    1.000
    C394     C        0.95523    0.66427    0.23497    1.000
    H250     H        0.92463    0.66447    0.22437    1.000
    C395     C        0.04683    0.81107    0.25207    1.000
    H251     H        0.07933    0.81207    0.25307    1.000
    C396     C        0.04503    0.85757    0.25257    1.000
    H252     H        0.07693    0.88947    0.25477    1.000
    Ni1      Ni       0.66667    0.40224    0.08333    1.000
    N1       N        0.66667    0.47403    0.08333    1.000
    N2       N        0.66667    0.71845    0.08333    1.000
    C397     C        0.66667    0.62188    0.08333    1.000
    C398     C        0.66667    0.57048    0.08333    1.000
    Ni2      Ni       0.59776    0.26442    0.08333    1.000
    N3       N        0.52597    0.19263    0.08333    1.000
    N4       N        0.28155    0.94821    0.08333    1.000
    C399     C        0.37812    0.04478    0.08333    1.000
    C400     C        0.42952    0.09618    0.08333    1.000
    Ni3      Ni       0.73558    0.33333    0.08333    1.000
    N5       N        0.80737    0.33333    0.08333    1.000
    N6       N        0.05179    0.33333    0.08333    1.000
    C401     C        0.95522    0.33333    0.08333    1.000
    C402     C        0.90382    0.33333    0.08333    1.000
    Ni4      Ni       0.40224    0.66667    0.41667    1.000
    N7       N        0.47403    0.66667    0.41667    1.000
    N8       N        0.71845    0.66667    0.41667    1.000
    C403     C        0.62188    0.66667    0.41667    1.000
    C404     C        0.57048    0.66667    0.41667    1.000
    Ni5      Ni       0.06891    0.00000    0.75000    1.000
    N9       N        0.14070    0.00000    0.75000    1.000
    N10      N        0.38512    0.00000    0.75000    1.000
    C405     C        0.28855    0.00000    0.75000    1.000
    C406     C        0.23715    0.00000    0.75000    1.000
    Ni6      Ni       0.26442    0.59776    0.41667    1.000
    N11      N        0.19263    0.52597    0.41667    1.000
    N12      N        0.94821    0.28155    0.41667    1.000
    C407     C        0.04478    0.37812    0.41667    1.000
    C408     C        0.09618    0.42952    0.41667    1.000
    Ni7      Ni       0.93109    0.93109    0.75000    1.000
    N13      N        0.85930    0.85930    0.75000    1.000
    N14      N        0.61488    0.61488    0.75000    1.000
    C409     C        0.71145    0.71145    0.75000    1.000
    C410     C        0.76285    0.76285    0.75000    1.000
    Ni8      Ni       0.33333    0.73558    0.41667    1.000
    N15      N        0.33333    0.80737    0.41667    1.000
    N16      N        0.33333    0.05179    0.41667    1.000
    C411     C        0.33333    0.95522    0.41667    1.000
    C412     C        0.33333    0.90382    0.41667    1.000
    Ni9      Ni       0.00000    0.06891    0.75000    1.000
    N17      N        0.00000    0.14070    0.75000    1.000
    N18      N        0.00000    0.38512    0.75000    1.000
    C413     C        0.00000    0.28855    0.75000    1.000
    C414     C        0.00000    0.23715    0.75000    1.000
    Ni10     Ni       0.33333    0.59776    0.91667    1.000
    N19      N        0.33333    0.52597    0.91667    1.000
    N20      N        0.33333    0.28155    0.91667    1.000
    C415     C        0.33333    0.37812    0.91667    1.000
    C416     C        0.33333    0.42952    0.91667    1.000
    Ni11     Ni       0.00000    0.93109    0.25000    1.000
    N21      N        0.00000    0.85930    0.25000    1.000
    N22      N        0.00000    0.61488    0.25000    1.000
    C417     C        0.00000    0.71145    0.25000    1.000
    C418     C        0.00000    0.76285    0.25000    1.000
    Ni12     Ni       0.40224    0.73558    0.91667    1.000
    N23      N        0.47403    0.80737    0.91667    1.000
    N24      N        0.71845    0.05179    0.91667    1.000
    C419     C        0.62188    0.95522    0.91667    1.000
    C420     C        0.57048    0.90382    0.91667    1.000
    Ni13     Ni       0.06891    0.06891    0.25000    1.000
    N25      N        0.14070    0.14070    0.25000    1.000
    N26      N        0.38512    0.38512    0.25000    1.000
    C421     C        0.28855    0.28855    0.25000    1.000
    C422     C        0.23715    0.23715    0.25000    1.000
    Ni14     Ni       0.26442    0.66667    0.91667    1.000
    N27      N        0.19263    0.66667    0.91667    1.000
    N28      N        0.94821    0.66667    0.91667    1.000
    C423     C        0.04478    0.66667    0.91667    1.000
    C424     C        0.09618    0.66667    0.91667    1.000
    Ni15     Ni       0.93109    0.00000    0.25000    1.000
    N29      N        0.85930    0.00000    0.25000    1.000
    N30      N        0.61488    0.00000    0.25000    1.000
    C425     C        0.71145    0.00000    0.25000    1.000
    C426     C        0.76285    0.00000    0.25000    1.000
    Ni16     Ni       0.59776    0.33333    0.58333    1.000
    N31      N        0.52597    0.33333    0.58333    1.000
    N32      N        0.28155    0.33333    0.58333    1.000
    C427     C        0.37812    0.33333    0.58333    1.000
    C428     C        0.42952    0.33333    0.58333    1.000
    Ni17     Ni       0.73558    0.40224    0.58333    1.000
    N33      N        0.80737    0.47403    0.58333    1.000
    N34      N        0.05179    0.71845    0.58333    1.000
    C429     C        0.95522    0.62188    0.58333    1.000
    C430     C        0.90382    0.57048    0.58333    1.000
    Ni18     Ni       0.66667    0.26442    0.58333    1.000
    N35      N        0.66667    0.19263    0.58333    1.000
    N36      N        0.66667    0.94821    0.58333    1.000
    C431     C        0.66667    0.04478    0.58333    1.000
    C432     C        0.66667    0.09618    0.58333    1.000
    O73      O        0.66667    0.33333    0.08333    1.000
    O74      O        0.00000    0.00000    0.75000    1.000
    O75      O        0.33333    0.66667    0.41667    1.000
    O76      O        0.33333    0.66667    0.91667    1.000
    O77      O        0.00000    0.00000    0.25000    1.000
    O78      O        0.66667    0.33333    0.58333    1.000
    H253     H        0.66667    0.33333    0.12330    1.000
    H254     H        0.33333    0.66667    0.45663    1.000
    H255     H        0.00000    0.00000    0.78997    1.000
    H256     H        0.33333    0.66667    0.37670    1.000
    H257     H        0.00000    0.00000    0.71003    1.000
    H258     H        0.66667    0.33333    0.04337    1.000
    H259     H        0.33333    0.66667    0.87670    1.000
    H260     H        0.00000    0.00000    0.21003    1.000
    H261     H        0.66667    0.33333    0.54337    1.000
    H262     H        0.66667    0.33333    0.62330    1.000
    H263     H        0.33333    0.66667    0.95663    1.000
    H264     H        0.00000    0.00000    0.28997    1.000
