# CIF file generated by openbabel 3.1.0, see https://openbabel.org
data_I
_chemical_name_common 'image0'
_cell_length_a 22.286
_cell_length_b 22.725
_cell_length_c 14.056
_cell_angle_alpha 90
_cell_angle_beta 90
_cell_angle_gamma 90
_space_group_name_H-M_alt 'P 1'
_space_group_name_Hall 'P 1'
loop_
    _symmetry_equiv_pos_as_xyz
    x,y,z
loop_
    _atom_site_label
    _atom_site_type_symbol
    _atom_site_fract_x
    _atom_site_fract_y
    _atom_site_fract_z
    _atom_site_occupancy
    Co1      Co       0.17447    0.20508    0.96154    1.000
    O1       O        0.20386    0.28649    0.01352    1.000
    O2       O        0.11924    0.34016    0.01750    1.000
    O3       O        0.32199    0.33483    0.59665    1.000
    O4       O        0.41386    0.32202    0.65786    1.000
    N1       N        0.26574    0.18197    0.93620    1.000
    N2       N        0.35060    0.13318    0.91085    1.000
    N3       N        0.63093    0.80105    0.79349    1.000
    N4       N        0.66831    0.74329    0.68188    1.000
    N5       N        0.14323    0.12366    0.90379    1.000
    N6       N        0.10422    0.06316    0.79712    1.000
    C1       C        0.17463    0.33268    0.03020    1.000
    C2       C        0.20937    0.38382    0.07240    1.000
    C3       C        0.26371    0.40509    0.03430    1.000
    C4       C        0.29404    0.44973    0.08260    1.000
    H1       H        0.33040    0.46350    0.05880    1.000
    C5       C        0.27082    0.47398    0.16570    1.000
    H2       H        0.29160    0.50380    0.19690    1.000
    C6       C        0.21732    0.45400    0.20180    1.000
    H3       H        0.20180    0.47030    0.25720    1.000
    C7       C        0.18624    0.40921    0.15530    1.000
    H4       H        0.14980    0.39610    0.17960    1.000
    C8       C        0.28820    0.38495    0.94050    1.000
    C9       C        0.34883    0.37021    0.92990    1.000
    H5       H        0.37400    0.37070    0.98270    1.000
    C10      C        0.37186    0.35479    0.84120    1.000
    H6       H        0.41220    0.34500    0.83560    1.000
    C11      C        0.33528    0.35377    0.76080    1.000
    C12      C        0.27489    0.36829    0.77140    1.000
    H7       H        0.24970    0.36740    0.71870    1.000
    C13      C        0.25182    0.38401    0.85970    1.000
    H8       H        0.21150    0.39410    0.86500    1.000
    C14      C        0.35892    0.33521    0.66410    1.000
    C15      C        0.29407    0.13147    0.94620    1.000
    H9       H        0.27720    0.09840    0.97440    1.000
    C16      C        0.30611    0.21830    0.89210    1.000
    H10      H        0.29870    0.25720    0.87550    1.000
    C17      C        0.35846    0.18955    0.87610    1.000
    H11      H        0.39280    0.20470    0.84750    1.000
    C18      C        0.39251    0.08578    0.90560    1.000
    C19      C        0.45080    0.09604    0.87570    1.000
    H12      H        0.46280    0.13400    0.86010    1.000
    C20      C        0.49134    0.04984    0.86900    1.000
    H13      H        0.53040    0.05770    0.84970    1.000
    C21      C        0.47549    0.99245    0.89010    1.000
    C22      C        0.41702    0.98307    0.92250    1.000
    H14      H        0.40530    0.94520    0.93920    1.000
    C23      C        0.37581    0.02878    0.93050    1.000
    H15      H        0.33720    0.02130    0.95250    1.000
    C24      C        0.51844    0.94288    0.87570    1.000
    C25      C        0.57374    0.95214    0.83240    1.000
    H16      H        0.58540    0.99040    0.81780    1.000
    C26      C        0.61193    0.90614    0.81050    1.000
    H17      H        0.64880    0.91360    0.78200    1.000
    C27      C        0.59514    0.84916    0.83110    1.000
    C28      C        0.54218    0.83871    0.87820    1.000
    H18      H        0.53160    0.80050    0.89480    1.000
    C29      C        0.50456    0.88506    0.90080    1.000
    H19      H        0.46910    0.87750    0.93360    1.000
    C30      C        0.63224    0.78778    0.69950    1.000
    H20      H        0.61040    0.80770    0.65320    1.000
    C31      C        0.69179    0.72751    0.76970    1.000
    H21      H        0.71930    0.69740    0.77990    1.000
    C32      C        0.66839    0.76291    0.83900    1.000
    H22      H        0.67640    0.76130    0.90390    1.000
    C33      C        0.11382    0.11953    0.82300    1.000
    H23      H        0.10110    0.15180    0.78770    1.000
    C34      C        0.15268    0.06692    0.93220    1.000
    H24      H        0.17220    0.05590    0.98780    1.000
    C35      C        0.12950    0.02927    0.86770    1.000
    H25      H        0.13040    0.98840    0.87030    1.000
    C36      C        0.07416    0.04483    0.71220    1.000
    C37      C        0.06936    0.98594    0.68990    1.000
    H26      H        0.08550    0.95770    0.73040    1.000
    C38      C        0.04039    0.96874    0.60710    1.000
    H27      H        0.03760    0.92880    0.59310    1.000
    C39      C        0.01532    0.00920    0.54420    1.000
    C40      C        0.02065    0.06824    0.56970    1.000
    H28      H        0.00430    0.09670    0.52980    1.000
    C41      C        0.04913    0.08599    0.65120    1.000
    H29      H        0.05170    0.12580    0.66570    1.000
    Co2      Co       0.32553    0.29492    0.46154    1.000
    O5       O        0.29614    0.21351    0.51352    1.000
    O6       O        0.38076    0.15984    0.51750    1.000
    O7       O        0.17801    0.16517    0.09665    1.000
    O8       O        0.08614    0.17798    0.15786    1.000
    N7       N        0.23426    0.31803    0.43620    1.000
    N8       N        0.14940    0.36682    0.41085    1.000
    N9       N        0.86907    0.69895    0.29349    1.000
    N10      N        0.83169    0.75671    0.18188    1.000
    N11      N        0.35677    0.37634    0.40379    1.000
    N12      N        0.39578    0.43684    0.29712    1.000
    C42      C        0.32537    0.16732    0.53020    1.000
    C43      C        0.29063    0.11618    0.57240    1.000
    C44      C        0.23629    0.09491    0.53430    1.000
    C45      C        0.20596    0.05027    0.58260    1.000
    H30      H        0.16960    0.03650    0.55880    1.000
    C46      C        0.22918    0.02602    0.66570    1.000
    H31      H        0.20840    0.99620    0.69690    1.000
    C47      C        0.28268    0.04600    0.70180    1.000
    H32      H        0.29820    0.02970    0.75720    1.000
    C48      C        0.31376    0.09079    0.65530    1.000
    H33      H        0.35020    0.10390    0.67960    1.000
    C49      C        0.21180    0.11505    0.44050    1.000
    C50      C        0.15117    0.12979    0.42990    1.000
    H34      H        0.12600    0.12930    0.48270    1.000
    C51      C        0.12814    0.14521    0.34120    1.000
    H35      H        0.08780    0.15500    0.33560    1.000
    C52      C        0.16472    0.14623    0.26080    1.000
    C53      C        0.22511    0.13171    0.27140    1.000
    H36      H        0.25030    0.13260    0.21870    1.000
    C54      C        0.24818    0.11599    0.35970    1.000
    H37      H        0.28850    0.10590    0.36500    1.000
    C55      C        0.14108    0.16479    0.16410    1.000
    C56      C        0.20593    0.36853    0.44620    1.000
    H38      H        0.22280    0.40160    0.47440    1.000
    C57      C        0.19389    0.28170    0.39210    1.000
    H39      H        0.20130    0.24280    0.37550    1.000
    C58      C        0.14154    0.31045    0.37610    1.000
    H40      H        0.10720    0.29530    0.34750    1.000
    C59      C        0.10749    0.41422    0.40560    1.000
    C60      C        0.04920    0.40396    0.37570    1.000
    H41      H        0.03720    0.36600    0.36010    1.000
    C61      C        0.00866    0.45016    0.36900    1.000
    H42      H        0.96960    0.44230    0.34970    1.000
    C62      C        0.02451    0.50755    0.39010    1.000
    C63      C        0.08298    0.51693    0.42250    1.000
    H43      H        0.09470    0.55480    0.43920    1.000
    C64      C        0.12419    0.47122    0.43050    1.000
    H44      H        0.16280    0.47870    0.45250    1.000
    C65      C        0.98156    0.55712    0.37570    1.000
    C66      C        0.92626    0.54786    0.33240    1.000
    H45      H        0.91460    0.50960    0.31780    1.000
    C67      C        0.88807    0.59386    0.31050    1.000
    H46      H        0.85120    0.58640    0.28200    1.000
    C68      C        0.90486    0.65084    0.33110    1.000
    C69      C        0.95782    0.66129    0.37820    1.000
    H47      H        0.96840    0.69950    0.39480    1.000
    C70      C        0.99544    0.61494    0.40080    1.000
    H48      H        0.03090    0.62250    0.43360    1.000
    C71      C        0.86776    0.71222    0.19950    1.000
    H49      H        0.88960    0.69230    0.15320    1.000
    C72      C        0.80821    0.77249    0.26970    1.000
    H50      H        0.78070    0.80260    0.27990    1.000
    C73      C        0.83161    0.73709    0.33900    1.000
    H51      H        0.82360    0.73870    0.40390    1.000
    C74      C        0.38618    0.38047    0.32300    1.000
    H52      H        0.39890    0.34820    0.28770    1.000
    C75      C        0.34732    0.43308    0.43220    1.000
    H53      H        0.32780    0.44410    0.48780    1.000
    C76      C        0.37050    0.47073    0.36770    1.000
    H54      H        0.36960    0.51160    0.37030    1.000
    C77      C        0.42584    0.45517    0.21220    1.000
    C78      C        0.43064    0.51406    0.18990    1.000
    H55      H        0.41450    0.54230    0.23040    1.000
    C79      C        0.45961    0.53126    0.10710    1.000
    H56      H        0.46240    0.57120    0.09310    1.000
    C80      C        0.48468    0.49080    0.04420    1.000
    C81      C        0.47935    0.43176    0.06970    1.000
    H57      H        0.49570    0.40330    0.02980    1.000
    C82      C        0.45087    0.41401    0.15120    1.000
    H58      H        0.44830    0.37420    0.16570    1.000
    Co3      Co       0.82553    0.79492    0.03846    1.000
    O9       O        0.79614    0.71351    0.98648    1.000
    O10      O        0.88076    0.65984    0.98250    1.000
    O11      O        0.67801    0.66517    0.40335    1.000
    O12      O        0.58614    0.67798    0.34214    1.000
    N13      N        0.73426    0.81803    0.06380    1.000
    N14      N        0.64940    0.86682    0.08915    1.000
    N15      N        0.36907    0.19895    0.20651    1.000
    N16      N        0.33169    0.25671    0.31812    1.000
    N17      N        0.85677    0.87634    0.09621    1.000
    N18      N        0.89578    0.93684    0.20288    1.000
    C83      C        0.82537    0.66732    0.96980    1.000
    C84      C        0.79063    0.61618    0.92760    1.000
    C85      C        0.73629    0.59491    0.96570    1.000
    C86      C        0.70596    0.55027    0.91740    1.000
    H59      H        0.66960    0.53650    0.94120    1.000
    C87      C        0.72918    0.52602    0.83430    1.000
    H60      H        0.70840    0.49620    0.80310    1.000
    C88      C        0.78268    0.54600    0.79820    1.000
    H61      H        0.79820    0.52970    0.74280    1.000
    C89      C        0.81376    0.59079    0.84470    1.000
    H62      H        0.85020    0.60390    0.82040    1.000
    C90      C        0.71180    0.61505    0.05950    1.000
    C91      C        0.65117    0.62979    0.07010    1.000
    H63      H        0.62600    0.62930    0.01730    1.000
    C92      C        0.62814    0.64521    0.15880    1.000
    H64      H        0.58780    0.65500    0.16440    1.000
    C93      C        0.66472    0.64623    0.23920    1.000
    C94      C        0.72511    0.63171    0.22860    1.000
    H65      H        0.75030    0.63260    0.28130    1.000
    C95      C        0.74818    0.61599    0.14030    1.000
    H66      H        0.78850    0.60590    0.13500    1.000
    C96      C        0.64108    0.66479    0.33590    1.000
    C97      C        0.70593    0.86853    0.05380    1.000
    H67      H        0.72280    0.90160    0.02560    1.000
    C98      C        0.69389    0.78170    0.10790    1.000
    H68      H        0.70130    0.74280    0.12450    1.000
    C99      C        0.64154    0.81045    0.12390    1.000
    H69      H        0.60720    0.79530    0.15250    1.000
    C100     C        0.60749    0.91422    0.09440    1.000
    C101     C        0.54920    0.90396    0.12430    1.000
    H70      H        0.53720    0.86600    0.13990    1.000
    C102     C        0.50866    0.95016    0.13100    1.000
    H71      H        0.46960    0.94230    0.15030    1.000
    C103     C        0.52451    0.00755    0.10990    1.000
    C104     C        0.58298    0.01693    0.07750    1.000
    H72      H        0.59470    0.05480    0.06080    1.000
    C105     C        0.62419    0.97122    0.06950    1.000
    H73      H        0.66280    0.97870    0.04750    1.000
    C106     C        0.48156    0.05712    0.12430    1.000
    C107     C        0.42626    0.04786    0.16760    1.000
    H74      H        0.41460    0.00960    0.18220    1.000
    C108     C        0.38807    0.09386    0.18950    1.000
    H75      H        0.35120    0.08640    0.21800    1.000
    C109     C        0.40486    0.15084    0.16890    1.000
    C110     C        0.45782    0.16129    0.12180    1.000
    H76      H        0.46840    0.19950    0.10520    1.000
    C111     C        0.49544    0.11494    0.09920    1.000
    H77      H        0.53090    0.12250    0.06640    1.000
    C112     C        0.36776    0.21222    0.30050    1.000
    H78      H        0.38960    0.19230    0.34680    1.000
    C113     C        0.30821    0.27249    0.23030    1.000
    H79      H        0.28070    0.30260    0.22010    1.000
    C114     C        0.33161    0.23709    0.16100    1.000
    H80      H        0.32360    0.23870    0.09610    1.000
    C115     C        0.88618    0.88047    0.17700    1.000
    H81      H        0.89890    0.84820    0.21230    1.000
    C116     C        0.84732    0.93308    0.06780    1.000
    H82      H        0.82780    0.94410    0.01220    1.000
    C117     C        0.87050    0.97073    0.13230    1.000
    H83      H        0.86960    0.01160    0.12970    1.000
    C118     C        0.92584    0.95517    0.28780    1.000
    C119     C        0.93064    0.01406    0.31010    1.000
    H84      H        0.91450    0.04230    0.26960    1.000
    C120     C        0.95961    0.03126    0.39290    1.000
    H85      H        0.96240    0.07120    0.40690    1.000
    C121     C        0.98468    0.99080    0.45580    1.000
    C122     C        0.97935    0.93176    0.43030    1.000
    H86      H        0.99570    0.90330    0.47020    1.000
    C123     C        0.95087    0.91401    0.34880    1.000
    H87      H        0.94830    0.87420    0.33430    1.000
    Co4      Co       0.67447    0.70508    0.53846    1.000
    O13      O        0.70386    0.78649    0.48648    1.000
    O14      O        0.61924    0.84016    0.48250    1.000
    O15      O        0.82199    0.83483    0.90335    1.000
    O16      O        0.91386    0.82202    0.84214    1.000
    N19      N        0.76574    0.68197    0.56380    1.000
    N20      N        0.85060    0.63318    0.58915    1.000
    N21      N        0.13093    0.30105    0.70651    1.000
    N22      N        0.16831    0.24329    0.81812    1.000
    N23      N        0.64323    0.62366    0.59621    1.000
    N24      N        0.60422    0.56316    0.70288    1.000
    C124     C        0.67463    0.83268    0.46980    1.000
    C125     C        0.70937    0.88382    0.42760    1.000
    C126     C        0.76371    0.90509    0.46570    1.000
    C127     C        0.79404    0.94973    0.41740    1.000
    H88      H        0.83040    0.96350    0.44120    1.000
    C128     C        0.77082    0.97398    0.33430    1.000
    H89      H        0.79160    0.00380    0.30310    1.000
    C129     C        0.71732    0.95400    0.29820    1.000
    H90      H        0.70180    0.97030    0.24280    1.000
    C130     C        0.68624    0.90921    0.34470    1.000
    H91      H        0.64980    0.89610    0.32040    1.000
    C131     C        0.78820    0.88495    0.55950    1.000
    C132     C        0.84883    0.87021    0.57010    1.000
    H92      H        0.87400    0.87070    0.51730    1.000
    C133     C        0.87186    0.85479    0.65880    1.000
    H93      H        0.91220    0.84500    0.66440    1.000
    C134     C        0.83528    0.85377    0.73920    1.000
    C135     C        0.77489    0.86829    0.72860    1.000
    H94      H        0.74970    0.86740    0.78130    1.000
    C136     C        0.75182    0.88401    0.64030    1.000
    H95      H        0.71150    0.89410    0.63500    1.000
    C137     C        0.85892    0.83521    0.83590    1.000
    C138     C        0.79407    0.63147    0.55380    1.000
    H96      H        0.77720    0.59840    0.52560    1.000
    C139     C        0.80611    0.71830    0.60790    1.000
    H97      H        0.79870    0.75720    0.62450    1.000
    C140     C        0.85846    0.68955    0.62390    1.000
    H98      H        0.89280    0.70470    0.65250    1.000
    C141     C        0.89251    0.58578    0.59440    1.000
    C142     C        0.95080    0.59604    0.62430    1.000
    H99      H        0.96280    0.63400    0.63990    1.000
    C143     C        0.99134    0.54984    0.63100    1.000
    H100     H        0.03040    0.55770    0.65030    1.000
    C144     C        0.97549    0.49245    0.60990    1.000
    C145     C        0.91702    0.48307    0.57750    1.000
    H101     H        0.90530    0.44520    0.56080    1.000
    C146     C        0.87581    0.52878    0.56950    1.000
    H102     H        0.83720    0.52130    0.54750    1.000
    C147     C        0.01844    0.44288    0.62430    1.000
    C148     C        0.07374    0.45214    0.66760    1.000
    H103     H        0.08540    0.49040    0.68220    1.000
    C149     C        0.11193    0.40614    0.68950    1.000
    H104     H        0.14880    0.41360    0.71800    1.000
    C150     C        0.09514    0.34916    0.66890    1.000
    C151     C        0.04218    0.33871    0.62180    1.000
    H105     H        0.03160    0.30050    0.60520    1.000
    C152     C        0.00456    0.38506    0.59920    1.000
    H106     H        0.96910    0.37750    0.56640    1.000
    C153     C        0.13224    0.28778    0.80050    1.000
    H107     H        0.11040    0.30770    0.84680    1.000
    C154     C        0.19179    0.22751    0.73030    1.000
    H108     H        0.21930    0.19740    0.72010    1.000
    C155     C        0.16839    0.26291    0.66100    1.000
    H109     H        0.17640    0.26130    0.59610    1.000
    C156     C        0.61382    0.61953    0.67700    1.000
    H110     H        0.60110    0.65180    0.71230    1.000
    C157     C        0.65268    0.56692    0.56780    1.000
    H111     H        0.67220    0.55590    0.51220    1.000
    C158     C        0.62950    0.52927    0.63230    1.000
    H112     H        0.63040    0.48840    0.62970    1.000
    C159     C        0.57416    0.54483    0.78780    1.000
    C160     C        0.56936    0.48594    0.81010    1.000
    H113     H        0.58550    0.45770    0.76960    1.000
    C161     C        0.54039    0.46874    0.89290    1.000
    H114     H        0.53760    0.42880    0.90690    1.000
    C162     C        0.51532    0.50920    0.95580    1.000
    C163     C        0.52065    0.56824    0.93030    1.000
    H115     H        0.50430    0.59670    0.97020    1.000
    C164     C        0.54913    0.58599    0.84880    1.000
    H116     H        0.55170    0.62580    0.83430    1.000
    Co5      Co       0.82553    0.20508    0.53846    1.000
    O17      O        0.79614    0.28649    0.48648    1.000
    O18      O        0.88076    0.34016    0.48250    1.000
    O19      O        0.67801    0.33483    0.90335    1.000
    O20      O        0.58614    0.32202    0.84214    1.000
    N25      N        0.73426    0.18197    0.56380    1.000
    N26      N        0.64940    0.13318    0.58915    1.000
    N27      N        0.36907    0.80105    0.70651    1.000
    N28      N        0.33169    0.74329    0.81812    1.000
    N29      N        0.85677    0.12366    0.59621    1.000
    N30      N        0.89578    0.06316    0.70288    1.000
    C165     C        0.82537    0.33268    0.46980    1.000
    C166     C        0.79063    0.38382    0.42760    1.000
    C167     C        0.73629    0.40509    0.46570    1.000
    C168     C        0.70596    0.44973    0.41740    1.000
    H117     H        0.66960    0.46350    0.44120    1.000
    C169     C        0.72918    0.47398    0.33430    1.000
    H118     H        0.70840    0.50380    0.30310    1.000
    C170     C        0.78268    0.45400    0.29820    1.000
    H119     H        0.79820    0.47030    0.24280    1.000
    C171     C        0.81376    0.40921    0.34470    1.000
    H120     H        0.85020    0.39610    0.32040    1.000
    C172     C        0.71180    0.38495    0.55950    1.000
    C173     C        0.65117    0.37021    0.57010    1.000
    H121     H        0.62600    0.37070    0.51730    1.000
    C174     C        0.62814    0.35479    0.65880    1.000
    H122     H        0.58780    0.34500    0.66440    1.000
    C175     C        0.66472    0.35377    0.73920    1.000
    C176     C        0.72511    0.36829    0.72860    1.000
    H123     H        0.75030    0.36740    0.78130    1.000
    C177     C        0.74818    0.38401    0.64030    1.000
    H124     H        0.78850    0.39410    0.63500    1.000
    C178     C        0.64108    0.33521    0.83590    1.000
    C179     C        0.70593    0.13147    0.55380    1.000
    H125     H        0.72280    0.09840    0.52560    1.000
    C180     C        0.69389    0.21830    0.60790    1.000
    H126     H        0.70130    0.25720    0.62450    1.000
    C181     C        0.64154    0.18955    0.62390    1.000
    H127     H        0.60720    0.20470    0.65250    1.000
    C182     C        0.60749    0.08578    0.59440    1.000
    C183     C        0.54920    0.09604    0.62430    1.000
    H128     H        0.53720    0.13400    0.63990    1.000
    C184     C        0.50866    0.04984    0.63100    1.000
    H129     H        0.46960    0.05770    0.65030    1.000
    C185     C        0.52451    0.99245    0.60990    1.000
    C186     C        0.58298    0.98307    0.57750    1.000
    H130     H        0.59470    0.94520    0.56080    1.000
    C187     C        0.62419    0.02878    0.56950    1.000
    H131     H        0.66280    0.02130    0.54750    1.000
    C188     C        0.48156    0.94288    0.62430    1.000
    C189     C        0.42626    0.95214    0.66760    1.000
    H132     H        0.41460    0.99040    0.68220    1.000
    C190     C        0.38807    0.90614    0.68950    1.000
    H133     H        0.35120    0.91360    0.71800    1.000
    C191     C        0.40486    0.84916    0.66890    1.000
    C192     C        0.45782    0.83871    0.62180    1.000
    H134     H        0.46840    0.80050    0.60520    1.000
    C193     C        0.49544    0.88506    0.59920    1.000
    H135     H        0.53090    0.87750    0.56640    1.000
    C194     C        0.36776    0.78778    0.80050    1.000
    H136     H        0.38960    0.80770    0.84680    1.000
    C195     C        0.30821    0.72751    0.73030    1.000
    H137     H        0.28070    0.69740    0.72010    1.000
    C196     C        0.33161    0.76291    0.66100    1.000
    H138     H        0.32360    0.76130    0.59610    1.000
    C197     C        0.88618    0.11953    0.67700    1.000
    H139     H        0.89890    0.15180    0.71230    1.000
    C198     C        0.84732    0.06692    0.56780    1.000
    H140     H        0.82780    0.05590    0.51220    1.000
    C199     C        0.87050    0.02927    0.63230    1.000
    H141     H        0.86960    0.98840    0.62970    1.000
    C200     C        0.92584    0.04483    0.78780    1.000
    C201     C        0.93064    0.98594    0.81010    1.000
    H142     H        0.91450    0.95770    0.76960    1.000
    C202     C        0.95961    0.96874    0.89290    1.000
    H143     H        0.96240    0.92880    0.90690    1.000
    C203     C        0.98468    0.00920    0.95580    1.000
    C204     C        0.97935    0.06824    0.93030    1.000
    H144     H        0.99570    0.09670    0.97020    1.000
    C205     C        0.95087    0.08599    0.84880    1.000
    H145     H        0.94830    0.12580    0.83430    1.000
    Co6      Co       0.67447    0.29492    0.03846    1.000
    O21      O        0.70386    0.21351    0.98648    1.000
    O22      O        0.61924    0.15984    0.98250    1.000
    O23      O        0.82199    0.16517    0.40335    1.000
    O24      O        0.91386    0.17798    0.34214    1.000
    N31      N        0.76574    0.31803    0.06380    1.000
    N32      N        0.85060    0.36682    0.08915    1.000
    N33      N        0.13093    0.69895    0.20651    1.000
    N34      N        0.16831    0.75671    0.31812    1.000
    N35      N        0.64323    0.37634    0.09621    1.000
    N36      N        0.60422    0.43684    0.20288    1.000
    C206     C        0.67463    0.16732    0.96980    1.000
    C207     C        0.70937    0.11618    0.92760    1.000
    C208     C        0.76371    0.09491    0.96570    1.000
    C209     C        0.79404    0.05027    0.91740    1.000
    H146     H        0.83040    0.03650    0.94120    1.000
    C210     C        0.77082    0.02602    0.83430    1.000
    H147     H        0.79160    0.99620    0.80310    1.000
    C211     C        0.71732    0.04600    0.79820    1.000
    H148     H        0.70180    0.02970    0.74280    1.000
    C212     C        0.68624    0.09079    0.84470    1.000
    H149     H        0.64980    0.10390    0.82040    1.000
    C213     C        0.78820    0.11505    0.05950    1.000
    C214     C        0.84883    0.12979    0.07010    1.000
    H150     H        0.87400    0.12930    0.01730    1.000
    C215     C        0.87186    0.14521    0.15880    1.000
    H151     H        0.91220    0.15500    0.16440    1.000
    C216     C        0.83528    0.14623    0.23920    1.000
    C217     C        0.77489    0.13171    0.22860    1.000
    H152     H        0.74970    0.13260    0.28130    1.000
    C218     C        0.75182    0.11599    0.14030    1.000
    H153     H        0.71150    0.10590    0.13500    1.000
    C219     C        0.85892    0.16479    0.33590    1.000
    C220     C        0.79407    0.36853    0.05380    1.000
    H154     H        0.77720    0.40160    0.02560    1.000
    C221     C        0.80611    0.28170    0.10790    1.000
    H155     H        0.79870    0.24280    0.12450    1.000
    C222     C        0.85846    0.31045    0.12390    1.000
    H156     H        0.89280    0.29530    0.15250    1.000
    C223     C        0.89251    0.41422    0.09440    1.000
    C224     C        0.95080    0.40396    0.12430    1.000
    H157     H        0.96280    0.36600    0.13990    1.000
    C225     C        0.99134    0.45016    0.13100    1.000
    H158     H        0.03040    0.44230    0.15030    1.000
    C226     C        0.97549    0.50755    0.10990    1.000
    C227     C        0.91702    0.51693    0.07750    1.000
    H159     H        0.90530    0.55480    0.06080    1.000
    C228     C        0.87581    0.47122    0.06950    1.000
    H160     H        0.83720    0.47870    0.04750    1.000
    C229     C        0.01844    0.55712    0.12430    1.000
    C230     C        0.07374    0.54786    0.16760    1.000
    H161     H        0.08540    0.50960    0.18220    1.000
    C231     C        0.11193    0.59386    0.18950    1.000
    H162     H        0.14880    0.58640    0.21800    1.000
    C232     C        0.09514    0.65084    0.16890    1.000
    C233     C        0.04218    0.66129    0.12180    1.000
    H163     H        0.03160    0.69950    0.10520    1.000
    C234     C        0.00456    0.61494    0.09920    1.000
    H164     H        0.96910    0.62250    0.06640    1.000
    C235     C        0.13224    0.71222    0.30050    1.000
    H165     H        0.11040    0.69230    0.34680    1.000
    C236     C        0.19179    0.77249    0.23030    1.000
    H166     H        0.21930    0.80260    0.22010    1.000
    C237     C        0.16839    0.73709    0.16100    1.000
    H167     H        0.17640    0.73870    0.09610    1.000
    C238     C        0.61382    0.38047    0.17700    1.000
    H168     H        0.60110    0.34820    0.21230    1.000
    C239     C        0.65268    0.43308    0.06780    1.000
    H169     H        0.67220    0.44410    0.01220    1.000
    C240     C        0.62950    0.47073    0.13230    1.000
    H170     H        0.63040    0.51160    0.12970    1.000
    C241     C        0.57416    0.45517    0.28780    1.000
    C242     C        0.56936    0.51406    0.31010    1.000
    H171     H        0.58550    0.54230    0.26960    1.000
    C243     C        0.54039    0.53126    0.39290    1.000
    H172     H        0.53760    0.57120    0.40690    1.000
    C244     C        0.51532    0.49080    0.45580    1.000
    C245     C        0.52065    0.43176    0.43030    1.000
    H173     H        0.50430    0.40330    0.47020    1.000
    C246     C        0.54913    0.41401    0.34880    1.000
    H174     H        0.55170    0.37420    0.33430    1.000
    Co7      Co       0.17447    0.79492    0.46154    1.000
    O25      O        0.20386    0.71351    0.51352    1.000
    O26      O        0.11924    0.65984    0.51750    1.000
    O27      O        0.32199    0.66517    0.09665    1.000
    O28      O        0.41386    0.67798    0.15786    1.000
    N37      N        0.26574    0.81803    0.43620    1.000
    N38      N        0.35060    0.86682    0.41085    1.000
    N39      N        0.63093    0.19895    0.29349    1.000
    N40      N        0.66831    0.25671    0.18188    1.000
    N41      N        0.14323    0.87634    0.40379    1.000
    N42      N        0.10422    0.93684    0.29712    1.000
    C247     C        0.17463    0.66732    0.53020    1.000
    C248     C        0.20937    0.61618    0.57240    1.000
    C249     C        0.26371    0.59491    0.53430    1.000
    C250     C        0.29404    0.55027    0.58260    1.000
    H175     H        0.33040    0.53650    0.55880    1.000
    C251     C        0.27082    0.52602    0.66570    1.000
    H176     H        0.29160    0.49620    0.69690    1.000
    C252     C        0.21732    0.54600    0.70180    1.000
    H177     H        0.20180    0.52970    0.75720    1.000
    C253     C        0.18624    0.59079    0.65530    1.000
    H178     H        0.14980    0.60390    0.67960    1.000
    C254     C        0.28820    0.61505    0.44050    1.000
    C255     C        0.34883    0.62979    0.42990    1.000
    H179     H        0.37400    0.62930    0.48270    1.000
    C256     C        0.37186    0.64521    0.34120    1.000
    H180     H        0.41220    0.65500    0.33560    1.000
    C257     C        0.33528    0.64623    0.26080    1.000
    C258     C        0.27489    0.63171    0.27140    1.000
    H181     H        0.24970    0.63260    0.21870    1.000
    C259     C        0.25182    0.61599    0.35970    1.000
    H182     H        0.21150    0.60590    0.36500    1.000
    C260     C        0.35892    0.66479    0.16410    1.000
    C261     C        0.29407    0.86853    0.44620    1.000
    H183     H        0.27720    0.90160    0.47440    1.000
    C262     C        0.30611    0.78170    0.39210    1.000
    H184     H        0.29870    0.74280    0.37550    1.000
    C263     C        0.35846    0.81045    0.37610    1.000
    H185     H        0.39280    0.79530    0.34750    1.000
    C264     C        0.39251    0.91422    0.40560    1.000
    C265     C        0.45080    0.90396    0.37570    1.000
    H186     H        0.46280    0.86600    0.36010    1.000
    C266     C        0.49134    0.95016    0.36900    1.000
    H187     H        0.53040    0.94230    0.34970    1.000
    C267     C        0.47549    0.00755    0.39010    1.000
    C268     C        0.41702    0.01693    0.42250    1.000
    H188     H        0.40530    0.05480    0.43920    1.000
    C269     C        0.37581    0.97122    0.43050    1.000
    H189     H        0.33720    0.97870    0.45250    1.000
    C270     C        0.51844    0.05712    0.37570    1.000
    C271     C        0.57374    0.04786    0.33240    1.000
    H190     H        0.58540    0.00960    0.31780    1.000
    C272     C        0.61193    0.09386    0.31050    1.000
    H191     H        0.64880    0.08640    0.28200    1.000
    C273     C        0.59514    0.15084    0.33110    1.000
    C274     C        0.54218    0.16129    0.37820    1.000
    H192     H        0.53160    0.19950    0.39480    1.000
    C275     C        0.50456    0.11494    0.40080    1.000
    H193     H        0.46910    0.12250    0.43360    1.000
    C276     C        0.63224    0.21222    0.19950    1.000
    H194     H        0.61040    0.19230    0.15320    1.000
    C277     C        0.69179    0.27249    0.26970    1.000
    H195     H        0.71930    0.30260    0.27990    1.000
    C278     C        0.66839    0.23709    0.33900    1.000
    H196     H        0.67640    0.23870    0.40390    1.000
    C279     C        0.11382    0.88047    0.32300    1.000
    H197     H        0.10110    0.84820    0.28770    1.000
    C280     C        0.15268    0.93308    0.43220    1.000
    H198     H        0.17220    0.94410    0.48780    1.000
    C281     C        0.12950    0.97073    0.36770    1.000
    H199     H        0.13040    0.01160    0.37030    1.000
    C282     C        0.07416    0.95517    0.21220    1.000
    C283     C        0.06936    0.01406    0.18990    1.000
    H200     H        0.08550    0.04230    0.23040    1.000
    C284     C        0.04039    0.03126    0.10710    1.000
    H201     H        0.03760    0.07120    0.09310    1.000
    C285     C        0.01532    0.99080    0.04420    1.000
    C286     C        0.02065    0.93176    0.06970    1.000
    H202     H        0.00430    0.90330    0.02980    1.000
    C287     C        0.04913    0.91401    0.15120    1.000
    H203     H        0.05170    0.87420    0.16570    1.000
    Co8      Co       0.32553    0.70508    0.96154    1.000
    O29      O        0.29614    0.78649    0.01352    1.000
    O30      O        0.38076    0.84016    0.01750    1.000
    O31      O        0.17801    0.83483    0.59665    1.000
    O32      O        0.08614    0.82202    0.65786    1.000
    N43      N        0.23426    0.68197    0.93620    1.000
    N44      N        0.14940    0.63318    0.91085    1.000
    N45      N        0.86907    0.30105    0.79349    1.000
    N46      N        0.83169    0.24329    0.68188    1.000
    N47      N        0.35677    0.62366    0.90379    1.000
    N48      N        0.39578    0.56316    0.79712    1.000
    C288     C        0.32537    0.83268    0.03020    1.000
    C289     C        0.29063    0.88382    0.07240    1.000
    C290     C        0.23629    0.90509    0.03430    1.000
    C291     C        0.20596    0.94973    0.08260    1.000
    H204     H        0.16960    0.96350    0.05880    1.000
    C292     C        0.22918    0.97398    0.16570    1.000
    H205     H        0.20840    0.00380    0.19690    1.000
    C293     C        0.28268    0.95400    0.20180    1.000
    H206     H        0.29820    0.97030    0.25720    1.000
    C294     C        0.31376    0.90921    0.15530    1.000
    H207     H        0.35020    0.89610    0.17960    1.000
    C295     C        0.21180    0.88495    0.94050    1.000
    C296     C        0.15117    0.87021    0.92990    1.000
    H208     H        0.12600    0.87070    0.98270    1.000
    C297     C        0.12814    0.85479    0.84120    1.000
    H209     H        0.08780    0.84500    0.83560    1.000
    C298     C        0.16472    0.85377    0.76080    1.000
    C299     C        0.22511    0.86829    0.77140    1.000
    H210     H        0.25030    0.86740    0.71870    1.000
    C300     C        0.24818    0.88401    0.85970    1.000
    H211     H        0.28850    0.89410    0.86500    1.000
    C301     C        0.14108    0.83521    0.66410    1.000
    C302     C        0.20593    0.63147    0.94620    1.000
    H212     H        0.22280    0.59840    0.97440    1.000
    C303     C        0.19389    0.71830    0.89210    1.000
    H213     H        0.20130    0.75720    0.87550    1.000
    C304     C        0.14154    0.68955    0.87610    1.000
    H214     H        0.10720    0.70470    0.84750    1.000
    C305     C        0.10749    0.58578    0.90560    1.000
    C306     C        0.04920    0.59604    0.87570    1.000
    H215     H        0.03720    0.63400    0.86010    1.000
    C307     C        0.00866    0.54984    0.86900    1.000
    H216     H        0.96960    0.55770    0.84970    1.000
    C308     C        0.02451    0.49245    0.89010    1.000
    C309     C        0.08298    0.48307    0.92250    1.000
    H217     H        0.09470    0.44520    0.93920    1.000
    C310     C        0.12419    0.52878    0.93050    1.000
    H218     H        0.16280    0.52130    0.95250    1.000
    C311     C        0.98156    0.44288    0.87570    1.000
    C312     C        0.92626    0.45214    0.83240    1.000
    H219     H        0.91460    0.49040    0.81780    1.000
    C313     C        0.88807    0.40614    0.81050    1.000
    H220     H        0.85120    0.41360    0.78200    1.000
    C314     C        0.90486    0.34916    0.83110    1.000
    C315     C        0.95782    0.33871    0.87820    1.000
    H221     H        0.96840    0.30050    0.89480    1.000
    C316     C        0.99544    0.38506    0.90080    1.000
    H222     H        0.03090    0.37750    0.93360    1.000
    C317     C        0.86776    0.28778    0.69950    1.000
    H223     H        0.88960    0.30770    0.65320    1.000
    C318     C        0.80821    0.22751    0.76970    1.000
    H224     H        0.78070    0.19740    0.77990    1.000
    C319     C        0.83161    0.26291    0.83900    1.000
    H225     H        0.82360    0.26130    0.90390    1.000
    C320     C        0.38618    0.61953    0.82300    1.000
    H226     H        0.39890    0.65180    0.78770    1.000
    C321     C        0.34732    0.56692    0.93220    1.000
    H227     H        0.32780    0.55590    0.98780    1.000
    C322     C        0.37050    0.52927    0.86770    1.000
    H228     H        0.36960    0.48840    0.87030    1.000
    C323     C        0.42584    0.54483    0.71220    1.000
    C324     C        0.43064    0.48594    0.68990    1.000
    H229     H        0.41450    0.45770    0.73040    1.000
    C325     C        0.45961    0.46874    0.60710    1.000
    H230     H        0.46240    0.42880    0.59310    1.000
    C326     C        0.48468    0.50920    0.54420    1.000
    C327     C        0.47935    0.56824    0.56970    1.000
    H231     H        0.49570    0.59670    0.52980    1.000
    C328     C        0.45087    0.58599    0.65120    1.000
    H232     H        0.44830    0.62580    0.66570    1.000
