# CIF file generated by openbabel 3.1.0, see https://openbabel.org
data_I
_chemical_name_common 'image0'
_cell_length_a 19.1999
_cell_length_b 19.1999
_cell_length_c 25.815
_cell_angle_alpha 90
_cell_angle_beta 90
_cell_angle_gamma 90
_space_group_name_H-M_alt 'P 1'
_space_group_name_Hall 'P 1'
loop_
    _symmetry_equiv_pos_as_xyz
    x,y,z
loop_
    _atom_site_label
    _atom_site_type_symbol
    _atom_site_fract_x
    _atom_site_fract_y
    _atom_site_fract_z
    _atom_site_occupancy
    Mn1      Mn       0.27324    0.78719    0.98364    1.000
    Mn2      Mn       0.38754    0.80931    0.09078    1.000
    O1       O        0.15660    0.20760    0.40910    1.000
    O2       O        0.29550    0.87130    0.45120    1.000
    O3       O        0.20970    0.18790    0.48405    1.000
    O4       O        0.25700    0.90570    0.99115    1.000
    O5       O        0.29190    0.94240    0.51850    1.000
    O6       O        0.22000    0.20830    0.08813    1.000
    O7       O        0.28560    0.84330    0.05969    1.000
    O8       O        0.22370    0.15900    0.01150    1.000
    C1       C        0.26490    0.90050    0.03880    1.000
    C2       C        0.24900    0.96200    0.07380    1.000
    C3       C        0.24180    0.02680    0.05230    1.000
    H1       H        0.24540    0.03260    0.01670    1.000
    C4       C        0.22930    0.08350    0.08380    1.000
    C5       C        0.22400    0.15400    0.05900    1.000
    C6       C        0.22240    0.07450    0.13620    1.000
    H2       H        0.21340    0.11250    0.15760    1.000
    C7       C        0.22900    0.00850    0.15730    1.000
    C8       C        0.24440    0.95230    0.12590    1.000
    H3       H        0.25150    0.90840    0.14010    1.000
    C9       C        0.21970    0.99750    0.21240    1.000
    C10      C        0.22960    0.04050    0.25340    1.000
    H4       H        0.24080    0.08760    0.25210    1.000
    C11      C        0.19090    0.17090    0.43910    1.000
    C12      C        0.20470    0.08420    0.36820    1.000
    H5       H        0.18530    0.11650    0.34550    1.000
    C13      C        0.21300    0.10060    0.42080    1.000
    C14      C        0.22550    0.02040    0.35060    1.000
    C15      C        0.25130    0.96980    0.38410    1.000
    H6       H        0.26410    0.92620    0.37150    1.000
    C16      C        0.25790    0.98510    0.43650    1.000
    C17      C        0.23990    0.05170    0.45400    1.000
    H7       H        0.24620    0.06300    0.48870    1.000
    C18      C        0.28450    0.92790    0.47230    1.000
    N1       N        0.19900    0.93620    0.28070    1.000
    N2       N        0.20080    0.93380    0.23150    1.000
    N3       N        0.22010    0.00210    0.29610    1.000
    Mn3      Mn       0.72676    0.21281    0.98364    1.000
    Mn4      Mn       0.61246    0.19069    0.09078    1.000
    O9       O        0.84340    0.79240    0.40910    1.000
    O10      O        0.70450    0.12870    0.45120    1.000
    O11      O        0.79030    0.81210    0.48405    1.000
    O12      O        0.74300    0.09430    0.99115    1.000
    O13      O        0.70810    0.05760    0.51850    1.000
    O14      O        0.78000    0.79170    0.08813    1.000
    O15      O        0.71440    0.15670    0.05969    1.000
    O16      O        0.77630    0.84100    0.01150    1.000
    C19      C        0.73510    0.09950    0.03880    1.000
    C20      C        0.75100    0.03800    0.07380    1.000
    C21      C        0.75820    0.97320    0.05230    1.000
    H8       H        0.75460    0.96740    0.01670    1.000
    C22      C        0.77070    0.91650    0.08380    1.000
    C23      C        0.77600    0.84600    0.05900    1.000
    C24      C        0.77760    0.92550    0.13620    1.000
    H9       H        0.78660    0.88750    0.15760    1.000
    C25      C        0.77100    0.99150    0.15730    1.000
    C26      C        0.75560    0.04770    0.12590    1.000
    H10      H        0.74850    0.09160    0.14010    1.000
    C27      C        0.78030    0.00250    0.21240    1.000
    C28      C        0.77040    0.95950    0.25340    1.000
    H11      H        0.75920    0.91240    0.25210    1.000
    C29      C        0.80910    0.82910    0.43910    1.000
    C30      C        0.79530    0.91580    0.36820    1.000
    H12      H        0.81470    0.88350    0.34550    1.000
    C31      C        0.78700    0.89940    0.42080    1.000
    C32      C        0.77450    0.97960    0.35060    1.000
    C33      C        0.74870    0.03020    0.38410    1.000
    H13      H        0.73590    0.07380    0.37150    1.000
    C34      C        0.74210    0.01490    0.43650    1.000
    C35      C        0.76010    0.94830    0.45400    1.000
    H14      H        0.75380    0.93700    0.48870    1.000
    C36      C        0.71550    0.07210    0.47230    1.000
    N4       N        0.80100    0.06380    0.28070    1.000
    N5       N        0.79920    0.06620    0.23150    1.000
    N6       N        0.77990    0.99790    0.29610    1.000
    Mn5      Mn       0.78719    0.72676    0.01636    1.000
    Mn6      Mn       0.80931    0.61246    0.90922    1.000
    O17      O        0.20760    0.84340    0.59090    1.000
    O18      O        0.87130    0.70450    0.54880    1.000
    O19      O        0.18790    0.79030    0.51595    1.000
    O20      O        0.90570    0.74300    0.00885    1.000
    O21      O        0.94240    0.70810    0.48150    1.000
    O22      O        0.20830    0.78000    0.91187    1.000
    O23      O        0.84330    0.71440    0.94031    1.000
    O24      O        0.15900    0.77630    0.98850    1.000
    C37      C        0.90050    0.73510    0.96120    1.000
    C38      C        0.96200    0.75100    0.92620    1.000
    C39      C        0.02680    0.75820    0.94770    1.000
    H15      H        0.03260    0.75460    0.98330    1.000
    C40      C        0.08350    0.77070    0.91620    1.000
    C41      C        0.15400    0.77600    0.94100    1.000
    C42      C        0.07450    0.77760    0.86380    1.000
    H16      H        0.11250    0.78660    0.84240    1.000
    C43      C        0.00850    0.77100    0.84270    1.000
    C44      C        0.95230    0.75560    0.87410    1.000
    H17      H        0.90840    0.74850    0.85990    1.000
    C45      C        0.99750    0.78030    0.78760    1.000
    C46      C        0.04050    0.77040    0.74660    1.000
    H18      H        0.08760    0.75920    0.74790    1.000
    C47      C        0.17090    0.80910    0.56090    1.000
    C48      C        0.08420    0.79530    0.63180    1.000
    H19      H        0.11650    0.81470    0.65450    1.000
    C49      C        0.10060    0.78700    0.57920    1.000
    C50      C        0.02040    0.77450    0.64940    1.000
    C51      C        0.96980    0.74870    0.61590    1.000
    H20      H        0.92620    0.73590    0.62850    1.000
    C52      C        0.98510    0.74210    0.56350    1.000
    C53      C        0.05170    0.76010    0.54600    1.000
    H21      H        0.06300    0.75380    0.51130    1.000
    C54      C        0.92790    0.71550    0.52770    1.000
    N7       N        0.93620    0.80100    0.71930    1.000
    N8       N        0.93380    0.79920    0.76850    1.000
    N9       N        0.00210    0.77990    0.70390    1.000
    Mn7      Mn       0.21281    0.27324    0.01636    1.000
    Mn8      Mn       0.19069    0.38754    0.90922    1.000
    O25      O        0.79240    0.15660    0.59090    1.000
    O26      O        0.12870    0.29550    0.54880    1.000
    O27      O        0.81210    0.20970    0.51595    1.000
    O28      O        0.09430    0.25700    0.00885    1.000
    O29      O        0.05760    0.29190    0.48150    1.000
    O30      O        0.79170    0.22000    0.91187    1.000
    O31      O        0.15670    0.28560    0.94031    1.000
    O32      O        0.84100    0.22370    0.98850    1.000
    C55      C        0.09950    0.26490    0.96120    1.000
    C56      C        0.03800    0.24900    0.92620    1.000
    C57      C        0.97320    0.24180    0.94770    1.000
    H22      H        0.96740    0.24540    0.98330    1.000
    C58      C        0.91650    0.22930    0.91620    1.000
    C59      C        0.84600    0.22400    0.94100    1.000
    C60      C        0.92550    0.22240    0.86380    1.000
    H23      H        0.88750    0.21340    0.84240    1.000
    C61      C        0.99150    0.22900    0.84270    1.000
    C62      C        0.04770    0.24440    0.87410    1.000
    H24      H        0.09160    0.25150    0.85990    1.000
    C63      C        0.00250    0.21970    0.78760    1.000
    C64      C        0.95950    0.22960    0.74660    1.000
    H25      H        0.91240    0.24080    0.74790    1.000
    C65      C        0.82910    0.19090    0.56090    1.000
    C66      C        0.91580    0.20470    0.63180    1.000
    H26      H        0.88350    0.18530    0.65450    1.000
    C67      C        0.89940    0.21300    0.57920    1.000
    C68      C        0.97960    0.22550    0.64940    1.000
    C69      C        0.03020    0.25130    0.61590    1.000
    H27      H        0.07380    0.26410    0.62850    1.000
    C70      C        0.01490    0.25790    0.56350    1.000
    C71      C        0.94830    0.23990    0.54600    1.000
    H28      H        0.93700    0.24620    0.51130    1.000
    C72      C        0.07210    0.28450    0.52770    1.000
    N10      N        0.06380    0.19900    0.71930    1.000
    N11      N        0.06620    0.20080    0.76850    1.000
    N12      N        0.99790    0.22010    0.70390    1.000
    Mn9      Mn       0.22676    0.28719    0.51636    1.000
    Mn10     Mn       0.11246    0.30931    0.40922    1.000
    O33      O        0.34340    0.70760    0.09090    1.000
    O34      O        0.20450    0.37130    0.04880    1.000
    O35      O        0.29030    0.68790    0.01595    1.000
    O36      O        0.24300    0.40570    0.50885    1.000
    O37      O        0.20810    0.44240    0.98150    1.000
    O38      O        0.28000    0.70830    0.41187    1.000
    O39      O        0.21440    0.34330    0.44031    1.000
    O40      O        0.27630    0.65900    0.48850    1.000
    C73      C        0.23510    0.40050    0.46120    1.000
    C74      C        0.25100    0.46200    0.42620    1.000
    C75      C        0.25820    0.52680    0.44770    1.000
    H29      H        0.25460    0.53260    0.48330    1.000
    C76      C        0.27070    0.58350    0.41620    1.000
    C77      C        0.27600    0.65400    0.44100    1.000
    C78      C        0.27760    0.57450    0.36380    1.000
    H30      H        0.28660    0.61250    0.34240    1.000
    C79      C        0.27100    0.50850    0.34270    1.000
    C80      C        0.25560    0.45230    0.37410    1.000
    H31      H        0.24850    0.40840    0.35990    1.000
    C81      C        0.28030    0.49750    0.28760    1.000
    C82      C        0.27040    0.54050    0.24660    1.000
    H32      H        0.25920    0.58760    0.24790    1.000
    C83      C        0.30910    0.67090    0.06090    1.000
    C84      C        0.29530    0.58420    0.13180    1.000
    H33      H        0.31470    0.61650    0.15450    1.000
    C85      C        0.28700    0.60060    0.07920    1.000
    C86      C        0.27450    0.52040    0.14940    1.000
    C87      C        0.24870    0.46980    0.11590    1.000
    H34      H        0.23590    0.42620    0.12850    1.000
    C88      C        0.24210    0.48510    0.06350    1.000
    C89      C        0.26010    0.55170    0.04600    1.000
    H35      H        0.25380    0.56300    0.01130    1.000
    C90      C        0.21550    0.42790    0.02770    1.000
    N13      N        0.30100    0.43620    0.21930    1.000
    N14      N        0.29920    0.43380    0.26850    1.000
    N15      N        0.27990    0.50210    0.20390    1.000
    Mn11     Mn       0.77324    0.71281    0.51636    1.000
    Mn12     Mn       0.88754    0.69069    0.40922    1.000
    O41      O        0.65660    0.29240    0.09090    1.000
    O42      O        0.79550    0.62870    0.04880    1.000
    O43      O        0.70970    0.31210    0.01595    1.000
    O44      O        0.75700    0.59430    0.50885    1.000
    O45      O        0.79190    0.55760    0.98150    1.000
    O46      O        0.72000    0.29170    0.41187    1.000
    O47      O        0.78560    0.65670    0.44031    1.000
    O48      O        0.72370    0.34100    0.48850    1.000
    C91      C        0.76490    0.59950    0.46120    1.000
    C92      C        0.74900    0.53800    0.42620    1.000
    C93      C        0.74180    0.47320    0.44770    1.000
    H36      H        0.74540    0.46740    0.48330    1.000
    C94      C        0.72930    0.41650    0.41620    1.000
    C95      C        0.72400    0.34600    0.44100    1.000
    C96      C        0.72240    0.42550    0.36380    1.000
    H37      H        0.71340    0.38750    0.34240    1.000
    C97      C        0.72900    0.49150    0.34270    1.000
    C98      C        0.74440    0.54770    0.37410    1.000
    H38      H        0.75150    0.59160    0.35990    1.000
    C99      C        0.71970    0.50250    0.28760    1.000
    C100     C        0.72960    0.45950    0.24660    1.000
    H39      H        0.74080    0.41240    0.24790    1.000
    C101     C        0.69090    0.32910    0.06090    1.000
    C102     C        0.70470    0.41580    0.13180    1.000
    H40      H        0.68530    0.38350    0.15450    1.000
    C103     C        0.71300    0.39940    0.07920    1.000
    C104     C        0.72550    0.47960    0.14940    1.000
    C105     C        0.75130    0.53020    0.11590    1.000
    H41      H        0.76410    0.57380    0.12850    1.000
    C106     C        0.75790    0.51490    0.06350    1.000
    C107     C        0.73990    0.44830    0.04600    1.000
    H42      H        0.74620    0.43700    0.01130    1.000
    C108     C        0.78450    0.57210    0.02770    1.000
    N16      N        0.69900    0.56380    0.21930    1.000
    N17      N        0.70080    0.56620    0.26850    1.000
    N18      N        0.72010    0.49790    0.20390    1.000
    Mn13     Mn       0.71281    0.22676    0.48364    1.000
    Mn14     Mn       0.69069    0.11246    0.59078    1.000
    O49      O        0.29240    0.34340    0.90910    1.000
    O50      O        0.62870    0.20450    0.95120    1.000
    O51      O        0.31210    0.29030    0.98405    1.000
    O52      O        0.59430    0.24300    0.49115    1.000
    O53      O        0.55760    0.20810    0.01850    1.000
    O54      O        0.29170    0.28000    0.58813    1.000
    O55      O        0.65670    0.21440    0.55969    1.000
    O56      O        0.34100    0.27630    0.51150    1.000
    C109     C        0.59950    0.23510    0.53880    1.000
    C110     C        0.53800    0.25100    0.57380    1.000
    C111     C        0.47320    0.25820    0.55230    1.000
    H43      H        0.46740    0.25460    0.51670    1.000
    C112     C        0.41650    0.27070    0.58380    1.000
    C113     C        0.34600    0.27600    0.55900    1.000
    C114     C        0.42550    0.27760    0.63620    1.000
    H44      H        0.38750    0.28660    0.65760    1.000
    C115     C        0.49150    0.27100    0.65730    1.000
    C116     C        0.54770    0.25560    0.62590    1.000
    H45      H        0.59160    0.24850    0.64010    1.000
    C117     C        0.50250    0.28030    0.71240    1.000
    C118     C        0.45950    0.27040    0.75340    1.000
    H46      H        0.41240    0.25920    0.75210    1.000
    C119     C        0.32910    0.30910    0.93910    1.000
    C120     C        0.41580    0.29530    0.86820    1.000
    H47      H        0.38350    0.31470    0.84550    1.000
    C121     C        0.39940    0.28700    0.92080    1.000
    C122     C        0.47960    0.27450    0.85060    1.000
    C123     C        0.53020    0.24870    0.88410    1.000
    H48      H        0.57380    0.23590    0.87150    1.000
    C124     C        0.51490    0.24210    0.93650    1.000
    C125     C        0.44830    0.26010    0.95400    1.000
    H49      H        0.43700    0.25380    0.98870    1.000
    C126     C        0.57210    0.21550    0.97230    1.000
    N19      N        0.56380    0.30100    0.78070    1.000
    N20      N        0.56620    0.29920    0.73150    1.000
    N21      N        0.49790    0.27990    0.79610    1.000
    Mn15     Mn       0.28719    0.77324    0.48364    1.000
    Mn16     Mn       0.30931    0.88754    0.59078    1.000
    O57      O        0.70760    0.65660    0.90910    1.000
    O58      O        0.37130    0.79550    0.95120    1.000
    O59      O        0.68790    0.70970    0.98405    1.000
    O60      O        0.40570    0.75700    0.49115    1.000
    O61      O        0.44240    0.79190    0.01850    1.000
    O62      O        0.70830    0.72000    0.58813    1.000
    O63      O        0.34330    0.78560    0.55969    1.000
    O64      O        0.65900    0.72370    0.51150    1.000
    C127     C        0.40050    0.76490    0.53880    1.000
    C128     C        0.46200    0.74900    0.57380    1.000
    C129     C        0.52680    0.74180    0.55230    1.000
    H50      H        0.53260    0.74540    0.51670    1.000
    C130     C        0.58350    0.72930    0.58380    1.000
    C131     C        0.65400    0.72400    0.55900    1.000
    C132     C        0.57450    0.72240    0.63620    1.000
    H51      H        0.61250    0.71340    0.65760    1.000
    C133     C        0.50850    0.72900    0.65730    1.000
    C134     C        0.45230    0.74440    0.62590    1.000
    H52      H        0.40840    0.75150    0.64010    1.000
    C135     C        0.49750    0.71970    0.71240    1.000
    C136     C        0.54050    0.72960    0.75340    1.000
    H53      H        0.58760    0.74080    0.75210    1.000
    C137     C        0.67090    0.69090    0.93910    1.000
    C138     C        0.58420    0.70470    0.86820    1.000
    H54      H        0.61650    0.68530    0.84550    1.000
    C139     C        0.60060    0.71300    0.92080    1.000
    C140     C        0.52040    0.72550    0.85060    1.000
    C141     C        0.46980    0.75130    0.88410    1.000
    H55      H        0.42620    0.76410    0.87150    1.000
    C142     C        0.48510    0.75790    0.93650    1.000
    C143     C        0.55170    0.73990    0.95400    1.000
    H56      H        0.56300    0.74620    0.98870    1.000
    C144     C        0.42790    0.78450    0.97230    1.000
    N22      N        0.43620    0.69900    0.78070    1.000
    N23      N        0.43380    0.70080    0.73150    1.000
    N24      N        0.50210    0.72010    0.79610    1.000
