# CIF file generated by openbabel 3.1.0, see https://openbabel.org
data_I
_chemical_name_common 'image0'
_cell_length_a 14.5196
_cell_length_b 23.367
_cell_length_c 15.6042
_cell_angle_alpha 90
_cell_angle_beta 107.475
_cell_angle_gamma 90
_space_group_name_H-M_alt 'P 1'
_space_group_name_Hall 'P 1'
loop_
    _symmetry_equiv_pos_as_xyz
    x,y,z
loop_
    _atom_site_label
    _atom_site_type_symbol
    _atom_site_fract_x
    _atom_site_fract_y
    _atom_site_fract_z
    _atom_site_occupancy
    Cd1      Cd       0.74343    0.05809    0.08387    1.000
    O1       O        0.72380    0.05031    0.93600    1.000
    O2       O        0.76240    0.96842    0.12360    1.000
    O3       O        0.81660    0.08250    0.26070    1.000
    O4       O        0.83310    0.15293    0.09420    1.000
    O5       O        0.90590    0.06962    0.10610    1.000
    O6       O        0.65240    0.12135    0.13000    1.000
    C1       C        0.66540    0.01160    0.89690    1.000
    C2       C        0.68900    0.95230    0.14420    1.000
    C3       C        0.66300    0.99470    0.80310    1.000
    O7       O        0.61090    0.98528    0.93070    1.000
    C4       C        0.69360    0.89400    0.18260    1.000
    O8       O        0.61610    0.98345    0.13460    1.000
    C5       C        0.73810    0.00710    0.76810    1.000
    C6       C        0.58390    0.96510    0.74990    1.000
    C7       C        0.76010    0.85450    0.17070    1.000
    C8       C        0.63460    0.87800    0.23300    1.000
    C9       C        0.73340    0.99030    0.68310    1.000
    H1       H        0.79190    0.02700    0.80280    1.000
    H2       H        0.53330    0.95580    0.77250    1.000
    C10      C        0.57950    0.94920    0.66370    1.000
    O9       O        0.53880    0.09382    0.00870    1.000
    C11      C        0.76790    0.80190    0.20820    1.000
    H3       H        0.80000    0.86440    0.13640    1.000
    H4       H        0.58780    0.90330    0.23960    1.000
    C12      C        0.64350    0.82510    0.27400    1.000
    C13      C        0.65350    0.96140    0.62880    1.000
    H5       H        0.78480    0.99850    0.66110    1.000
    H6       H        0.52540    0.92980    0.62840    1.000
    C14      C        0.71140    0.78680    0.26300    1.000
    H7       H        0.81110    0.77560    0.19730    1.000
    H8       H        0.60390    0.81530    0.30880    1.000
    N1       N        0.64890    0.94570    0.53890    1.000
    N2       N        0.72510    0.73310    0.30790    1.000
    C15      C        0.68350    0.98570    0.48650    1.000
    C16      C        0.58320    0.90260    0.49440    1.000
    C17      C        0.81730    0.70620    0.33220    1.000
    C18      C        0.65020    0.70790    0.33450    1.000
    C19      C        0.72780    0.96540    0.42490    1.000
    C20      C        0.67150    0.04350    0.49360    1.000
    C21      C        0.51920    0.91230    0.40960    1.000
    C22      C        0.57880    0.85090    0.53470    1.000
    C23      C        0.90030    0.73690    0.36600    1.000
    C24      C        0.82180    0.64660    0.32150    1.000
    C25      C        0.55810    0.70070    0.27550    1.000
    C26      C        0.66790    0.68760    0.42220    1.000
    H9       H        0.73720    0.92630    0.42040    1.000
    C27      C        0.75840    0.00330    0.36970    1.000
    C28      C        0.70190    0.08170    0.43900    1.000
    H10      H        0.64290    0.05750    0.53530    1.000
    H11      H        0.52330    0.94600    0.37950    1.000
    C29      C        0.44920    0.87200    0.36950    1.000
    C30      C        0.50960    0.81130    0.49560    1.000
    H12      H        0.62380    0.84260    0.58970    1.000
    H13      H        0.89680    0.77590    0.37670    1.000
    C31      C        0.98960    0.71080    0.38460    1.000
    C32      C        0.90980    0.62070    0.34250    1.000
    H14      H        0.76550    0.62520    0.30040    1.000
    H15      H        0.54410    0.71450    0.21710    1.000
    C33      C        0.48700    0.67350    0.30180    1.000
    C34      C        0.59780    0.66060    0.44900    1.000
    H16      H        0.72870    0.69260    0.46320    1.000
    H17      H        0.78730    0.98940    0.32820    1.000
    C35      C        0.74550    0.06170    0.37700    1.000
    H18      H        0.69280    0.12080    0.44420    1.000
    H19      H        0.40680    0.87900    0.31260    1.000
    C36      C        0.44220    0.82170    0.41350    1.000
    H20      H        0.50790    0.77680    0.52480    1.000
    H21      H        0.04570    0.73250    0.40470    1.000
    C37      C        0.99540    0.65180    0.37310    1.000
    H22      H        0.91290    0.58120    0.33630    1.000
    H23      H        0.42590    0.66870    0.26110    1.000
    C38      C        0.50670    0.65290    0.38990    1.000
    H24      H        0.61170    0.64740    0.50770    1.000
    C39      C        0.77480    0.10210    0.31480    1.000
    C40      C        0.36320    0.77970    0.37290    1.000
    C41      C        0.09070    0.62210    0.39170    1.000
    C42      C        0.43520    0.62100    0.41920    1.000
    O10      O        0.75240    0.15370    0.31960    1.000
    O11      O        0.32030    0.78060    0.29130    1.000
    O12      O        0.34020    0.74440    0.42320    1.000
    Cd2      Cd       0.76650    0.19378    0.19489    1.000
    Cd3      Cd       0.25657    0.55809    0.41613    1.000
    O13      O        0.27620    0.55031    0.56400    1.000
    O14      O        0.23760    0.46842    0.37640    1.000
    O15      O        0.18340    0.58250    0.23930    1.000
    O16      O        0.16690    0.65293    0.40580    1.000
    O17      O        0.09410    0.56962    0.39390    1.000
    O18      O        0.34760    0.62135    0.37000    1.000
    C43      C        0.33460    0.51160    0.60310    1.000
    C44      C        0.31100    0.45230    0.35580    1.000
    C45      C        0.33700    0.49470    0.69690    1.000
    O19      O        0.38910    0.48528    0.56930    1.000
    C46      C        0.30640    0.39400    0.31740    1.000
    O20      O        0.38390    0.48345    0.36540    1.000
    C47      C        0.26190    0.50710    0.73190    1.000
    C48      C        0.41610    0.46510    0.75010    1.000
    C49      C        0.23990    0.35450    0.32930    1.000
    C50      C        0.36540    0.37800    0.26700    1.000
    C51      C        0.26660    0.49030    0.81690    1.000
    H25      H        0.20810    0.52700    0.69720    1.000
    H26      H        0.46670    0.45580    0.72750    1.000
    C52      C        0.42050    0.44920    0.83630    1.000
    O21      O        0.46120    0.59382    0.49130    1.000
    C53      C        0.23210    0.30190    0.29180    1.000
    H27      H        0.20000    0.36440    0.36360    1.000
    H28      H        0.41220    0.40330    0.26040    1.000
    C54      C        0.35650    0.32510    0.22600    1.000
    C55      C        0.34650    0.46140    0.87120    1.000
    H29      H        0.21520    0.49850    0.83890    1.000
    H30      H        0.47460    0.42980    0.87160    1.000
    C56      C        0.28860    0.28680    0.23700    1.000
    H31      H        0.18890    0.27560    0.30270    1.000
    H32      H        0.39610    0.31530    0.19120    1.000
    N3       N        0.35110    0.44570    0.96110    1.000
    N4       N        0.27490    0.23310    0.19210    1.000
    C57      C        0.31650    0.48570    0.01350    1.000
    C58      C        0.41680    0.40260    0.00560    1.000
    C59      C        0.18270    0.20620    0.16780    1.000
    C60      C        0.34980    0.20790    0.16550    1.000
    C61      C        0.27220    0.46540    0.07510    1.000
    C62      C        0.32850    0.54350    0.00640    1.000
    C63      C        0.48080    0.41230    0.09040    1.000
    C64      C        0.42120    0.35090    0.96530    1.000
    C65      C        0.09970    0.23690    0.13400    1.000
    C66      C        0.17820    0.14660    0.17850    1.000
    C67      C        0.44190    0.20070    0.22450    1.000
    C68      C        0.33210    0.18760    0.07780    1.000
    H33      H        0.26280    0.42630    0.07960    1.000
    C69      C        0.24160    0.50330    0.13030    1.000
    C70      C        0.29810    0.58170    0.06100    1.000
    H34      H        0.35710    0.55750    0.96470    1.000
    H35      H        0.47670    0.44600    0.12050    1.000
    C71      C        0.55080    0.37200    0.13050    1.000
    C72      C        0.49040    0.31130    0.00440    1.000
    H36      H        0.37620    0.34260    0.91030    1.000
    H37      H        0.10320    0.27590    0.12330    1.000
    C73      C        0.01040    0.21080    0.11540    1.000
    C74      C        0.09020    0.12070    0.15750    1.000
    H38      H        0.23450    0.12520    0.19960    1.000
    H39      H        0.45590    0.21450    0.28290    1.000
    C75      C        0.51300    0.17350    0.19820    1.000
    C76      C        0.40220    0.16060    0.05100    1.000
    H40      H        0.27130    0.19260    0.03680    1.000
    H41      H        0.21270    0.48940    0.17180    1.000
    C77      C        0.25450    0.56170    0.12300    1.000
    H42      H        0.30720    0.62080    0.05580    1.000
    H43      H        0.59320    0.37900    0.18740    1.000
    C78      C        0.55780    0.32170    0.08650    1.000
    H44      H        0.49210    0.27680    0.97520    1.000
    H45      H        0.95430    0.23250    0.09530    1.000
    C79      C        0.00460    0.15180    0.12690    1.000
    H46      H        0.08710    0.08120    0.16370    1.000
    H47      H        0.57410    0.16870    0.23890    1.000
    C80      C        0.49330    0.15290    0.11010    1.000
    H48      H        0.38830    0.14740    0.99230    1.000
    C81      C        0.22520    0.60210    0.18520    1.000
    C82      C        0.63680    0.27970    0.12710    1.000
    C83      C        0.90930    0.12210    0.10830    1.000
    C84      C        0.56480    0.12100    0.08080    1.000
    O22      O        0.24760    0.65370    0.18040    1.000
    O23      O        0.67970    0.28060    0.20870    1.000
    O24      O        0.65980    0.24440    0.07680    1.000
    Cd4      Cd       0.23350    0.69378    0.30511    1.000
    Cd5      Cd       0.25657    0.94191    0.91613    1.000
    O25      O        0.27620    0.94969    0.06400    1.000
    O26      O        0.23760    0.03158    0.87640    1.000
    O27      O        0.18340    0.91750    0.73930    1.000
    O28      O        0.16690    0.84707    0.90580    1.000
    O29      O        0.09410    0.93038    0.89390    1.000
    O30      O        0.34760    0.87865    0.87000    1.000
    C85      C        0.33460    0.98840    0.10310    1.000
    C86      C        0.31100    0.04770    0.85580    1.000
    C87      C        0.33700    0.00530    0.19690    1.000
    O31      O        0.38910    0.01472    0.06930    1.000
    C88      C        0.30640    0.10600    0.81740    1.000
    O32      O        0.38390    0.01655    0.86540    1.000
    C89      C        0.26190    0.99290    0.23190    1.000
    C90      C        0.41610    0.03490    0.25010    1.000
    C91      C        0.23990    0.14550    0.82930    1.000
    C92      C        0.36540    0.12200    0.76700    1.000
    C93      C        0.26660    0.00970    0.31690    1.000
    H49      H        0.20810    0.97300    0.19720    1.000
    H50      H        0.46670    0.04420    0.22750    1.000
    C94      C        0.42050    0.05080    0.33630    1.000
    O33      O        0.46120    0.90618    0.99130    1.000
    C95      C        0.23210    0.19810    0.79180    1.000
    H51      H        0.20000    0.13560    0.86360    1.000
    H52      H        0.41220    0.09670    0.76040    1.000
    C96      C        0.35650    0.17490    0.72600    1.000
    C97      C        0.34650    0.03860    0.37120    1.000
    H53      H        0.21520    0.00150    0.33890    1.000
    H54      H        0.47460    0.07020    0.37160    1.000
    C98      C        0.28860    0.21320    0.73700    1.000
    H55      H        0.18890    0.22440    0.80270    1.000
    H56      H        0.39610    0.18470    0.69120    1.000
    N5       N        0.35110    0.05430    0.46110    1.000
    N6       N        0.27490    0.26690    0.69210    1.000
    C99      C        0.31650    0.01430    0.51350    1.000
    C100     C        0.41680    0.09740    0.50560    1.000
    C101     C        0.18270    0.29380    0.66780    1.000
    C102     C        0.34980    0.29210    0.66550    1.000
    C103     C        0.27220    0.03460    0.57510    1.000
    C104     C        0.32850    0.95650    0.50640    1.000
    C105     C        0.48080    0.08770    0.59040    1.000
    C106     C        0.42120    0.14910    0.46530    1.000
    C107     C        0.09970    0.26310    0.63400    1.000
    C108     C        0.17820    0.35340    0.67850    1.000
    C109     C        0.44190    0.29930    0.72450    1.000
    C110     C        0.33210    0.31240    0.57780    1.000
    H57      H        0.26280    0.07370    0.57960    1.000
    C111     C        0.24160    0.99670    0.63030    1.000
    C112     C        0.29810    0.91830    0.56100    1.000
    H58      H        0.35710    0.94250    0.46470    1.000
    H59      H        0.47670    0.05400    0.62050    1.000
    C113     C        0.55080    0.12800    0.63050    1.000
    C114     C        0.49040    0.18870    0.50440    1.000
    H60      H        0.37620    0.15740    0.41030    1.000
    H61      H        0.10320    0.22410    0.62330    1.000
    C115     C        0.01040    0.28920    0.61540    1.000
    C116     C        0.09020    0.37930    0.65750    1.000
    H62      H        0.23450    0.37480    0.69960    1.000
    H63      H        0.45590    0.28550    0.78290    1.000
    C117     C        0.51300    0.32650    0.69820    1.000
    C118     C        0.40220    0.33940    0.55100    1.000
    H64      H        0.27130    0.30740    0.53680    1.000
    H65      H        0.21270    0.01060    0.67180    1.000
    C119     C        0.25450    0.93830    0.62300    1.000
    H66      H        0.30720    0.87920    0.55580    1.000
    H67      H        0.59320    0.12100    0.68740    1.000
    C120     C        0.55780    0.17830    0.58650    1.000
    H68      H        0.49210    0.22320    0.47520    1.000
    H69      H        0.95430    0.26750    0.59530    1.000
    C121     C        0.00460    0.34820    0.62690    1.000
    H70      H        0.08710    0.41880    0.66370    1.000
    H71      H        0.57410    0.33130    0.73890    1.000
    C122     C        0.49330    0.34710    0.61010    1.000
    H72      H        0.38830    0.35260    0.49230    1.000
    C123     C        0.22520    0.89790    0.68520    1.000
    C124     C        0.63680    0.22030    0.62710    1.000
    C125     C        0.90930    0.37790    0.60830    1.000
    C126     C        0.56480    0.37900    0.58080    1.000
    O34      O        0.24760    0.84630    0.68040    1.000
    O35      O        0.67970    0.21940    0.70870    1.000
    O36      O        0.65980    0.25560    0.57680    1.000
    Cd6      Cd       0.23350    0.80622    0.80511    1.000
    Cd7      Cd       0.74343    0.44191    0.58387    1.000
    O37      O        0.72380    0.44969    0.43600    1.000
    O38      O        0.76240    0.53158    0.62360    1.000
    O39      O        0.81660    0.41750    0.76070    1.000
    O40      O        0.83310    0.34707    0.59420    1.000
    O41      O        0.90590    0.43038    0.60610    1.000
    O42      O        0.65240    0.37865    0.63000    1.000
    C127     C        0.66540    0.48840    0.39690    1.000
    C128     C        0.68900    0.54770    0.64420    1.000
    C129     C        0.66300    0.50530    0.30310    1.000
    O43      O        0.61090    0.51472    0.43070    1.000
    C130     C        0.69360    0.60600    0.68260    1.000
    O44      O        0.61610    0.51655    0.63460    1.000
    C131     C        0.73810    0.49290    0.26810    1.000
    C132     C        0.58390    0.53490    0.24990    1.000
    C133     C        0.76010    0.64550    0.67070    1.000
    C134     C        0.63460    0.62200    0.73300    1.000
    C135     C        0.73340    0.50970    0.18310    1.000
    H73      H        0.79190    0.47300    0.30280    1.000
    H74      H        0.53330    0.54420    0.27250    1.000
    C136     C        0.57950    0.55080    0.16370    1.000
    O45      O        0.53880    0.40618    0.50870    1.000
    C137     C        0.76790    0.69810    0.70820    1.000
    H75      H        0.80000    0.63560    0.63640    1.000
    H76      H        0.58780    0.59670    0.73960    1.000
    C138     C        0.64350    0.67490    0.77400    1.000
    C139     C        0.65350    0.53860    0.12880    1.000
    H77      H        0.78480    0.50150    0.16110    1.000
    H78      H        0.52540    0.57020    0.12840    1.000
    C140     C        0.71140    0.71320    0.76300    1.000
    H79      H        0.81110    0.72440    0.69730    1.000
    H80      H        0.60390    0.68470    0.80880    1.000
    N7       N        0.64890    0.55430    0.03890    1.000
    N8       N        0.72510    0.76690    0.80790    1.000
    C141     C        0.68350    0.51430    0.98650    1.000
    C142     C        0.58320    0.59740    0.99440    1.000
    C143     C        0.81730    0.79380    0.83220    1.000
    C144     C        0.65020    0.79210    0.83450    1.000
    C145     C        0.72780    0.53460    0.92490    1.000
    C146     C        0.67150    0.45650    0.99360    1.000
    C147     C        0.51920    0.58770    0.90960    1.000
    C148     C        0.57880    0.64910    0.03470    1.000
    C149     C        0.90030    0.76310    0.86600    1.000
    C150     C        0.82180    0.85340    0.82150    1.000
    C151     C        0.55810    0.79930    0.77550    1.000
    C152     C        0.66790    0.81240    0.92220    1.000
    H81      H        0.73720    0.57370    0.92040    1.000
    C153     C        0.75840    0.49670    0.86970    1.000
    C154     C        0.70190    0.41830    0.93900    1.000
    H82      H        0.64290    0.44250    0.03530    1.000
    H83      H        0.52330    0.55400    0.87950    1.000
    C155     C        0.44920    0.62800    0.86950    1.000
    C156     C        0.50960    0.68870    0.99560    1.000
    H84      H        0.62380    0.65740    0.08970    1.000
    H85      H        0.89680    0.72410    0.87670    1.000
    C157     C        0.98960    0.78920    0.88460    1.000
    C158     C        0.90980    0.87930    0.84250    1.000
    H86      H        0.76550    0.87480    0.80040    1.000
    H87      H        0.54410    0.78550    0.71710    1.000
    C159     C        0.48700    0.82650    0.80180    1.000
    C160     C        0.59780    0.83940    0.94900    1.000
    H88      H        0.72870    0.80740    0.96320    1.000
    H89      H        0.78730    0.51060    0.82820    1.000
    C161     C        0.74550    0.43830    0.87700    1.000
    H90      H        0.69280    0.37920    0.94420    1.000
    H91      H        0.40680    0.62100    0.81260    1.000
    C162     C        0.44220    0.67830    0.91350    1.000
    H92      H        0.50790    0.72320    0.02480    1.000
    H93      H        0.04570    0.76750    0.90470    1.000
    C163     C        0.99540    0.84820    0.87310    1.000
    H94      H        0.91290    0.91880    0.83630    1.000
    H95      H        0.42590    0.83130    0.76110    1.000
    C164     C        0.50670    0.84710    0.88990    1.000
    H96      H        0.61170    0.85260    0.00770    1.000
    C165     C        0.77480    0.39790    0.81480    1.000
    C166     C        0.36320    0.72030    0.87290    1.000
    C167     C        0.09070    0.87790    0.89170    1.000
    C168     C        0.43520    0.87900    0.91920    1.000
    O46      O        0.75240    0.34630    0.81960    1.000
    O47      O        0.32030    0.71940    0.79130    1.000
    O48      O        0.34020    0.75560    0.92320    1.000
    Cd8      Cd       0.76650    0.30622    0.69489    1.000
    Cd9      Cd       0.50000    0.00000    0.00000    1.000
    Cd10     Cd       0.50000    0.50000    0.50000    1.000
