# CIF file generated by openbabel 3.1.0, see https://openbabel.org
data_I
_chemical_name_common 'image0'
_cell_length_a 11.124
_cell_length_b 15.709
_cell_length_c 11.337
_cell_angle_alpha 90
_cell_angle_beta 106.48
_cell_angle_gamma 90
_space_group_name_H-M_alt 'P 1'
_space_group_name_Hall 'P 1'
loop_
    _symmetry_equiv_pos_as_xyz
    x,y,z
loop_
    _atom_site_label
    _atom_site_type_symbol
    _atom_site_fract_x
    _atom_site_fract_y
    _atom_site_fract_z
    _atom_site_occupancy
    Cu1      Cu       0.76105    0.12696    0.03342    1.000
    N1       N        0.75970    0.20714    0.89000    1.000
    N2       N        0.76540    0.30509    0.68550    1.000
    N3       N        0.90300    0.04938    0.02040    1.000
    N4       N        0.60420    0.05176    0.00940    1.000
    C1       C        0.84850    0.26390    0.89380    1.000
    H1       H        0.91160    0.27130    0.96700    1.000
    C2       C        0.67420    0.20080    0.78110    1.000
    H2       H        0.60960    0.16160    0.77260    1.000
    C3       C        0.85100    0.31220    0.79370    1.000
    H3       H        0.91540    0.35160    0.80200    1.000
    C4       C        0.67650    0.24880    0.68150    1.000
    H4       H        0.61320    0.24160    0.60840    1.000
    C5       C        0.02400    0.06680    0.07460    1.000
    H5       H        0.04420    0.11320    0.12730    1.000
    C6       C        0.88110    0.98160    0.94510    1.000
    H6       H        0.79860    0.96700    0.90490    1.000
    C7       C        0.61460    0.97210    0.05270    1.000
    H7       H        0.69410    0.95050    0.09060    1.000
    C8       C        0.48770    0.07880    0.95700    1.000
    H8       H        0.47550    0.13390    0.92600    1.000
    Cu2      Cu       0.23895    0.62696    0.46658    1.000
    N5       N        0.24030    0.70714    0.61000    1.000
    N6       N        0.23460    0.80509    0.81450    1.000
    N7       N        0.09700    0.54938    0.47960    1.000
    N8       N        0.39580    0.55176    0.49060    1.000
    C9       C        0.15150    0.76390    0.60620    1.000
    H9       H        0.08840    0.77130    0.53300    1.000
    C10      C        0.32580    0.70080    0.71890    1.000
    H10      H        0.39040    0.66160    0.72740    1.000
    C11      C        0.14900    0.81220    0.70630    1.000
    H11      H        0.08460    0.85160    0.69800    1.000
    C12      C        0.32350    0.74880    0.81850    1.000
    H12      H        0.38680    0.74160    0.89160    1.000
    C13      C        0.97600    0.56680    0.42540    1.000
    H13      H        0.95580    0.61320    0.37270    1.000
    C14      C        0.11890    0.48160    0.55490    1.000
    H14      H        0.20140    0.46700    0.59510    1.000
    C15      C        0.38540    0.47210    0.44730    1.000
    H15      H        0.30590    0.45050    0.40940    1.000
    C16      C        0.51230    0.57880    0.54300    1.000
    H16      H        0.52450    0.63390    0.57400    1.000
    Cu3      Cu       0.23895    0.87304    0.96658    1.000
    N9       N        0.24030    0.79286    0.11000    1.000
    N10      N        0.23460    0.69491    0.31450    1.000
    N11      N        0.09700    0.95062    0.97960    1.000
    N12      N        0.39580    0.94824    0.99060    1.000
    C17      C        0.15150    0.73610    0.10620    1.000
    H17      H        0.08840    0.72870    0.03300    1.000
    C18      C        0.32580    0.79920    0.21890    1.000
    H18      H        0.39040    0.83840    0.22740    1.000
    C19      C        0.14900    0.68780    0.20630    1.000
    H19      H        0.08460    0.64840    0.19800    1.000
    C20      C        0.32350    0.75120    0.31850    1.000
    H20      H        0.38680    0.75840    0.39160    1.000
    C21      C        0.97600    0.93320    0.92540    1.000
    H21      H        0.95580    0.88680    0.87270    1.000
    C22      C        0.11890    0.01840    0.05490    1.000
    H22      H        0.20140    0.03300    0.09510    1.000
    C23      C        0.38540    0.02790    0.94730    1.000
    H23      H        0.30590    0.04950    0.90940    1.000
    C24      C        0.51230    0.92120    0.04300    1.000
    H24      H        0.52450    0.86610    0.07400    1.000
    Cu4      Cu       0.76105    0.37304    0.53342    1.000
    N13      N        0.75970    0.29286    0.39000    1.000
    N14      N        0.76540    0.19491    0.18550    1.000
    N15      N        0.90300    0.45062    0.52040    1.000
    N16      N        0.60420    0.44824    0.50940    1.000
    C25      C        0.84850    0.23610    0.39380    1.000
    H25      H        0.91160    0.22870    0.46700    1.000
    C26      C        0.67420    0.29920    0.28110    1.000
    H26      H        0.60960    0.33840    0.27260    1.000
    C27      C        0.85100    0.18780    0.29370    1.000
    H27      H        0.91540    0.14840    0.30200    1.000
    C28      C        0.67650    0.25120    0.18150    1.000
    H28      H        0.61320    0.25840    0.10840    1.000
    C29      C        0.02400    0.43320    0.57460    1.000
    H29      H        0.04420    0.38680    0.62730    1.000
    C30      C        0.88110    0.51840    0.44510    1.000
    H30      H        0.79860    0.53300    0.40490    1.000
    C31      C        0.61460    0.52790    0.55270    1.000
    H31      H        0.69410    0.54950    0.59060    1.000
    C32      C        0.48770    0.42120    0.45700    1.000
    H32      H        0.47550    0.36610    0.42600    1.000
