# CIF file generated by openbabel 3.1.0, see https://openbabel.org
data_I
_chemical_name_common 'image0'
_cell_length_a 25.7522
_cell_length_b 25.7522
_cell_length_c 6.7576
_cell_angle_alpha 90
_cell_angle_beta 90
_cell_angle_gamma 120
_space_group_name_H-M_alt 'P 1'
_space_group_name_Hall 'P 1'
loop_
    _symmetry_equiv_pos_as_xyz
    x,y,z
loop_
    _atom_site_label
    _atom_site_type_symbol
    _atom_site_fract_x
    _atom_site_fract_y
    _atom_site_fract_z
    _atom_site_occupancy
    Ni1      Ni       0.61899    0.64771    0.35320    1.000
    O1       O        0.43861    0.40624    0.43423    1.000
    O2       O        0.36897    0.36544    0.21657    1.000
    O3       O        0.61444    0.58281    0.15798    1.000
    C1       C        0.41815    0.40686    0.25376    1.000
    C2       C        0.46256    0.45330    0.11806    1.000
    C3       C        0.55967    0.54857    0.08032    1.000
    C4       C        0.51805    0.49670    0.19414    1.000
    H1       H        0.52884    0.49191    0.32607    1.000
    Ni2      Ni       0.28566    0.98104    0.68653    1.000
    O4       O        0.10528    0.73957    0.76756    1.000
    O5       O        0.03564    0.69877    0.54990    1.000
    O6       O        0.28111    0.91614    0.49131    1.000
    C5       C        0.08482    0.74019    0.58709    1.000
    C6       C        0.12923    0.78663    0.45139    1.000
    C7       C        0.22634    0.88190    0.41365    1.000
    C8       C        0.18472    0.83003    0.52747    1.000
    H2       H        0.19551    0.82524    0.65940    1.000
    Ni3      Ni       0.95232    0.31438    0.01987    1.000
    O7       O        0.77194    0.07291    0.10090    1.000
    O8       O        0.70230    0.03211    0.88324    1.000
    O9       O        0.94777    0.24948    0.82465    1.000
    C9       C        0.75148    0.07353    0.92043    1.000
    C10      C        0.79589    0.11997    0.78473    1.000
    C11      C        0.89300    0.21524    0.74699    1.000
    C12      C        0.85138    0.16337    0.86081    1.000
    H3       H        0.86217    0.15858    0.99274    1.000
    Ni4      Ni       0.35229    0.97128    0.35320    1.000
    O10      O        0.59376    0.03237    0.43423    1.000
    O11      O        0.63456    0.00353    0.21657    1.000
    O12      O        0.41719    0.03163    0.15798    1.000
    C13      C        0.59314    0.01129    0.25376    1.000
    C14      C        0.54670    0.00926    0.11806    1.000
    C15      C        0.45143    0.01110    0.08032    1.000
    C16      C        0.50330    0.02135    0.19414    1.000
    H4       H        0.50809    0.03693    0.32607    1.000
    Ni5      Ni       0.01896    0.30461    0.68653    1.000
    O13      O        0.26043    0.36570    0.76756    1.000
    O14      O        0.30123    0.33686    0.54990    1.000
    O15      O        0.08386    0.36496    0.49131    1.000
    C17      C        0.25981    0.34462    0.58709    1.000
    C18      C        0.21337    0.34259    0.45139    1.000
    C19      C        0.11810    0.34443    0.41365    1.000
    C20      C        0.16997    0.35468    0.52747    1.000
    H5       H        0.17476    0.37026    0.65940    1.000
    Ni6      Ni       0.68562    0.63795    0.01987    1.000
    O16      O        0.92709    0.69904    0.10090    1.000
    O17      O        0.96789    0.67020    0.88324    1.000
    O18      O        0.75052    0.69830    0.82465    1.000
    C21      C        0.92647    0.67796    0.92043    1.000
    C22      C        0.88003    0.67593    0.78473    1.000
    C23      C        0.78476    0.67777    0.74699    1.000
    C24      C        0.83663    0.68802    0.86081    1.000
    H6       H        0.84142    0.70360    0.99274    1.000
    Ni7      Ni       0.02872    0.38101    0.35320    1.000
    O19      O        0.96763    0.56139    0.43423    1.000
    O20      O        0.99647    0.63103    0.21657    1.000
    O21      O        0.96837    0.38556    0.15798    1.000
    C25      C        0.98871    0.58185    0.25376    1.000
    C26      C        0.99074    0.53744    0.11806    1.000
    C27      C        0.98890    0.44033    0.08032    1.000
    C28      C        0.97865    0.48195    0.19414    1.000
    H7       H        0.96307    0.47116    0.32607    1.000
    Ni8      Ni       0.69539    0.71434    0.68653    1.000
    O22      O        0.63430    0.89472    0.76756    1.000
    O23      O        0.66314    0.96436    0.54990    1.000
    O24      O        0.63504    0.71889    0.49131    1.000
    C29      C        0.65538    0.91518    0.58709    1.000
    C30      C        0.65741    0.87077    0.45139    1.000
    C31      C        0.65557    0.77366    0.41365    1.000
    C32      C        0.64532    0.81528    0.52747    1.000
    H8       H        0.62974    0.80449    0.65940    1.000
    Ni9      Ni       0.36205    0.04768    0.01987    1.000
    O25      O        0.30096    0.22806    0.10090    1.000
    O26      O        0.32980    0.29770    0.88324    1.000
    O27      O        0.30170    0.05223    0.82465    1.000
    C33      C        0.32204    0.24852    0.92043    1.000
    C34      C        0.32407    0.20411    0.78473    1.000
    C35      C        0.32223    0.10700    0.74699    1.000
    C36      C        0.31198    0.14862    0.86081    1.000
    H9       H        0.29640    0.13783    0.99274    1.000
    Ni10     Ni       0.38101    0.35229    0.64680    1.000
    O28      O        0.56139    0.59376    0.56577    1.000
    O29      O        0.63103    0.63456    0.78343    1.000
    O30      O        0.38556    0.41719    0.84202    1.000
    C37      C        0.58185    0.59314    0.74624    1.000
    C38      C        0.53744    0.54670    0.88194    1.000
    C39      C        0.44033    0.45143    0.91968    1.000
    C40      C        0.48195    0.50330    0.80586    1.000
    H10      H        0.47116    0.50809    0.67393    1.000
    Ni11     Ni       0.04768    0.68562    0.98013    1.000
    O31      O        0.22806    0.92709    0.89910    1.000
    O32      O        0.29770    0.96789    0.11676    1.000
    O33      O        0.05223    0.75052    0.17535    1.000
    C41      C        0.24852    0.92647    0.07957    1.000
    C42      C        0.20411    0.88003    0.21527    1.000
    C43      C        0.10700    0.78476    0.25301    1.000
    C44      C        0.14862    0.83663    0.13919    1.000
    H11      H        0.13783    0.84142    0.00726    1.000
    Ni12     Ni       0.71434    0.01896    0.31347    1.000
    O34      O        0.89472    0.26043    0.23244    1.000
    O35      O        0.96436    0.30123    0.45010    1.000
    O36      O        0.71889    0.08386    0.50869    1.000
    C45      C        0.91518    0.25981    0.41291    1.000
    C46      C        0.87077    0.21337    0.54861    1.000
    C47      C        0.77366    0.11810    0.58635    1.000
    C48      C        0.81528    0.16997    0.47253    1.000
    H12      H        0.80449    0.17476    0.34060    1.000
    Ni13     Ni       0.64771    0.02872    0.64680    1.000
    O37      O        0.40624    0.96763    0.56577    1.000
    O38      O        0.36544    0.99647    0.78343    1.000
    O39      O        0.58281    0.96837    0.84202    1.000
    C49      C        0.40686    0.98871    0.74624    1.000
    C50      C        0.45330    0.99074    0.88194    1.000
    C51      C        0.54857    0.98890    0.91968    1.000
    C52      C        0.49670    0.97865    0.80586    1.000
    H13      H        0.49191    0.96307    0.67393    1.000
    Ni14     Ni       0.31438    0.36205    0.98013    1.000
    O40      O        0.07291    0.30096    0.89910    1.000
    O41      O        0.03211    0.32980    0.11676    1.000
    O42      O        0.24948    0.30170    0.17535    1.000
    C53      C        0.07353    0.32204    0.07957    1.000
    C54      C        0.11997    0.32407    0.21527    1.000
    C55      C        0.21524    0.32223    0.25301    1.000
    C56      C        0.16337    0.31198    0.13919    1.000
    H14      H        0.15858    0.29640    0.00726    1.000
    Ni15     Ni       0.98104    0.69539    0.31347    1.000
    O43      O        0.73957    0.63430    0.23244    1.000
    O44      O        0.69877    0.66314    0.45010    1.000
    O45      O        0.91614    0.63504    0.50869    1.000
    C57      C        0.74019    0.65538    0.41291    1.000
    C58      C        0.78663    0.65741    0.54861    1.000
    C59      C        0.88190    0.65557    0.58635    1.000
    C60      C        0.83003    0.64532    0.47253    1.000
    H15      H        0.82524    0.62974    0.34060    1.000
    Ni16     Ni       0.97128    0.61899    0.64680    1.000
    O46      O        0.03237    0.43861    0.56577    1.000
    O47      O        0.00353    0.36897    0.78343    1.000
    O48      O        0.03163    0.61444    0.84202    1.000
    C61      C        0.01129    0.41815    0.74624    1.000
    C62      C        0.00926    0.46256    0.88194    1.000
    C63      C        0.01110    0.55967    0.91968    1.000
    C64      C        0.02135    0.51805    0.80586    1.000
    H16      H        0.03693    0.52884    0.67393    1.000
    Ni17     Ni       0.63795    0.95232    0.98013    1.000
    O49      O        0.69904    0.77194    0.89910    1.000
    O50      O        0.67020    0.70230    0.11676    1.000
    O51      O        0.69830    0.94777    0.17535    1.000
    C65      C        0.67796    0.75148    0.07957    1.000
    C66      C        0.67593    0.79589    0.21527    1.000
    C67      C        0.67777    0.89300    0.25301    1.000
    C68      C        0.68802    0.85138    0.13919    1.000
    H17      H        0.70360    0.86217    0.00726    1.000
    Ni18     Ni       0.30461    0.28566    0.31347    1.000
    O52      O        0.36570    0.10528    0.23244    1.000
    O53      O        0.33686    0.03564    0.45010    1.000
    O54      O        0.36496    0.28111    0.50869    1.000
    C69      C        0.34462    0.08482    0.41291    1.000
    C70      C        0.34259    0.12923    0.54861    1.000
    C71      C        0.34443    0.22634    0.58635    1.000
    C72      C        0.35468    0.18472    0.47253    1.000
    H18      H        0.37026    0.19551    0.34060    1.000
