# CIF file generated by openbabel 3.1.0, see https://openbabel.org
data_I
_chemical_name_common 'image0'
_cell_length_a 25.179
_cell_length_b 14.747
_cell_length_c 26.053
_cell_angle_alpha 90
_cell_angle_beta 94.964
_cell_angle_gamma 90
_space_group_name_H-M_alt 'P 1'
_space_group_name_Hall 'P 1'
loop_
    _symmetry_equiv_pos_as_xyz
    x,y,z
loop_
    _atom_site_label
    _atom_site_type_symbol
    _atom_site_fract_x
    _atom_site_fract_y
    _atom_site_fract_z
    _atom_site_occupancy
    Gd1      Gd       0.85025    0.24571    0.00708    1.000
    C1       C        0.84180    0.04130    0.06990    1.000
    C2       C        0.82410    0.00750    0.12050    1.000
    C3       C        0.79480    0.06100    0.15030    1.000
    H1       H        0.78410    0.11830    0.13870    1.000
    C4       C        0.78110    0.03060    0.19760    1.000
    C5       C        0.79520    0.94440    0.21730    1.000
    C6       C        0.82440    0.89220    0.18500    1.000
    C7       C        0.83880    0.92090    0.13810    1.000
    H2       H        0.85820    0.88300    0.11820    1.000
    C8       C        0.78160    0.91500    0.26970    1.000
    C9       C        0.81790    0.92360    0.31290    1.000
    C10      C        0.80800    0.89290    0.36160    1.000
    H3       H        0.83390    0.89800    0.38910    1.000
    C11      C        0.75880    0.85480    0.36850    1.000
    C12      C        0.72160    0.84660    0.32730    1.000
    H4       H        0.68820    0.82250    0.33190    1.000
    C13      C        0.73350    0.87430    0.27870    1.000
    C14      C        0.86690    0.32560    0.88570    1.000
    C15      C        0.90660    0.31880    0.84550    1.000
    C16      C        0.94750    0.25660    0.85070    1.000
    H5       H        0.95140    0.21900    0.87940    1.000
    C17      C        0.98260    0.25020    0.81310    1.000
    C18      C        0.97970    0.30400    0.76960    1.000
    C19      C        0.93770    0.36620    0.76550    1.000
    C20      C        0.90110    0.37290    0.80300    1.000
    H6       H        0.87310    0.41420    0.79880    1.000
    C21      C        0.74560    0.82280    0.42160    1.000
    N1       N        0.75140    0.09130    0.22810    1.000
    N2       N        0.83980    0.79890    0.19990    1.000
    N3       N        0.86960    0.96590    0.30870    1.000
    N4       N        0.69310    0.85500    0.23620    1.000
    N5       N        0.92820    0.42510    0.72090    1.000
    N6       N        0.02560    0.18300    0.82190    1.000
    O1       O        0.82150    0.11400    0.05331    1.000
    O2       O        0.87660    0.99630    0.05031    1.000
    O3       O        0.76500    0.17040    0.22960    1.000
    O4       O        0.84240    0.77870    0.24530    1.000
    O5       O        0.85090    0.74720    0.16610    1.000
    O6       O        0.70640    0.85840    0.19220    1.000
    O7       O        0.64910    0.83090    0.24633    1.000
    O8       O        0.87270    0.02790    0.27750    1.000
    O9       O        0.90760    0.93830    0.33640    1.000
    O10      O        0.87940    0.28150    0.92671    1.000
    O11      O        0.82670    0.37150    0.87599    1.000
    O12      O        0.03610    0.15620    0.86570    1.000
    O13      O        0.04910    0.15770    0.78565    1.000
    O14      O        0.90310    0.49190    0.72490    1.000
    O15      O        0.94310    0.39890    0.68020    1.000
    O16      O        0.69930    0.79620    0.42488    1.000
    O17      O        0.78249    0.82360    0.45673    1.000
    O18      O        0.71440    0.06080    0.25040    1.000
    Gd2      Gd       0.35025    0.74571    0.00708    1.000
    C22      C        0.34180    0.54130    0.06990    1.000
    C23      C        0.32410    0.50750    0.12050    1.000
    C24      C        0.29480    0.56100    0.15030    1.000
    H7       H        0.28410    0.61830    0.13870    1.000
    C25      C        0.28110    0.53060    0.19760    1.000
    C26      C        0.29520    0.44440    0.21730    1.000
    C27      C        0.32440    0.39220    0.18500    1.000
    C28      C        0.33880    0.42090    0.13810    1.000
    H8       H        0.35820    0.38300    0.11820    1.000
    C29      C        0.28160    0.41500    0.26970    1.000
    C30      C        0.31790    0.42360    0.31290    1.000
    C31      C        0.30800    0.39290    0.36160    1.000
    H9       H        0.33390    0.39800    0.38910    1.000
    C32      C        0.25880    0.35480    0.36850    1.000
    C33      C        0.22160    0.34660    0.32730    1.000
    H10      H        0.18820    0.32250    0.33190    1.000
    C34      C        0.23350    0.37430    0.27870    1.000
    C35      C        0.36690    0.82560    0.88570    1.000
    C36      C        0.40660    0.81880    0.84550    1.000
    C37      C        0.44750    0.75660    0.85070    1.000
    H11      H        0.45140    0.71900    0.87940    1.000
    C38      C        0.48260    0.75020    0.81310    1.000
    C39      C        0.47970    0.80400    0.76960    1.000
    C40      C        0.43770    0.86620    0.76550    1.000
    C41      C        0.40110    0.87290    0.80300    1.000
    H12      H        0.37310    0.91420    0.79880    1.000
    C42      C        0.24560    0.32280    0.42160    1.000
    N7       N        0.25140    0.59130    0.22810    1.000
    N8       N        0.33980    0.29890    0.19990    1.000
    N9       N        0.36960    0.46590    0.30870    1.000
    N10      N        0.19310    0.35500    0.23620    1.000
    N11      N        0.42820    0.92510    0.72090    1.000
    N12      N        0.52560    0.68300    0.82190    1.000
    O19      O        0.32150    0.61400    0.05331    1.000
    O20      O        0.37660    0.49630    0.05031    1.000
    O21      O        0.26500    0.67040    0.22960    1.000
    O22      O        0.34240    0.27870    0.24530    1.000
    O23      O        0.35090    0.24720    0.16610    1.000
    O24      O        0.20640    0.35840    0.19220    1.000
    O25      O        0.14910    0.33090    0.24633    1.000
    O26      O        0.37270    0.52790    0.27750    1.000
    O27      O        0.40760    0.43830    0.33640    1.000
    O28      O        0.37940    0.78150    0.92671    1.000
    O29      O        0.32670    0.87150    0.87599    1.000
    O30      O        0.53610    0.65620    0.86570    1.000
    O31      O        0.54910    0.65770    0.78565    1.000
    O32      O        0.40310    0.99190    0.72490    1.000
    O33      O        0.44310    0.89890    0.68020    1.000
    O34      O        0.19930    0.29620    0.42488    1.000
    O35      O        0.28249    0.32360    0.45673    1.000
    O36      O        0.21440    0.56080    0.25040    1.000
    Gd3      Gd       0.14975    0.24571    0.49292    1.000
    C43      C        0.15820    0.04130    0.43010    1.000
    C44      C        0.17590    0.00750    0.37950    1.000
    C45      C        0.20520    0.06100    0.34970    1.000
    H13      H        0.21590    0.11830    0.36130    1.000
    C46      C        0.21890    0.03060    0.30240    1.000
    C47      C        0.20480    0.94440    0.28270    1.000
    C48      C        0.17560    0.89220    0.31500    1.000
    C49      C        0.16120    0.92090    0.36190    1.000
    H14      H        0.14180    0.88300    0.38180    1.000
    C50      C        0.21840    0.91500    0.23030    1.000
    C51      C        0.18210    0.92360    0.18710    1.000
    C52      C        0.19200    0.89290    0.13840    1.000
    H15      H        0.16610    0.89800    0.11090    1.000
    C53      C        0.24120    0.85480    0.13150    1.000
    C54      C        0.27840    0.84660    0.17270    1.000
    H16      H        0.31180    0.82250    0.16810    1.000
    C55      C        0.26650    0.87430    0.22130    1.000
    C56      C        0.13310    0.32560    0.61430    1.000
    C57      C        0.09340    0.31880    0.65450    1.000
    C58      C        0.05250    0.25660    0.64930    1.000
    H17      H        0.04860    0.21900    0.62060    1.000
    C59      C        0.01740    0.25020    0.68690    1.000
    C60      C        0.02030    0.30400    0.73040    1.000
    C61      C        0.06230    0.36620    0.73450    1.000
    C62      C        0.09890    0.37290    0.69700    1.000
    H18      H        0.12690    0.41420    0.70120    1.000
    C63      C        0.25440    0.82280    0.07840    1.000
    N13      N        0.24860    0.09130    0.27190    1.000
    N14      N        0.16020    0.79890    0.30010    1.000
    N15      N        0.13040    0.96590    0.19130    1.000
    N16      N        0.30690    0.85500    0.26380    1.000
    N17      N        0.07180    0.42510    0.77910    1.000
    N18      N        0.97440    0.18300    0.67810    1.000
    O37      O        0.17850    0.11400    0.44669    1.000
    O38      O        0.12340    0.99630    0.44969    1.000
    O39      O        0.23500    0.17040    0.27040    1.000
    O40      O        0.15760    0.77870    0.25470    1.000
    O41      O        0.14910    0.74720    0.33390    1.000
    O42      O        0.29360    0.85840    0.30780    1.000
    O43      O        0.35090    0.83090    0.25367    1.000
    O44      O        0.12730    0.02790    0.22250    1.000
    O45      O        0.09240    0.93830    0.16360    1.000
    O46      O        0.12060    0.28150    0.57329    1.000
    O47      O        0.17330    0.37150    0.62401    1.000
    O48      O        0.96390    0.15620    0.63430    1.000
    O49      O        0.95090    0.15770    0.71435    1.000
    O50      O        0.09690    0.49190    0.77510    1.000
    O51      O        0.05690    0.39890    0.81980    1.000
    O52      O        0.30070    0.79620    0.07512    1.000
    O53      O        0.21751    0.82360    0.04327    1.000
    O54      O        0.28560    0.06080    0.24960    1.000
    Gd4      Gd       0.64975    0.74571    0.49292    1.000
    C64      C        0.65820    0.54130    0.43010    1.000
    C65      C        0.67590    0.50750    0.37950    1.000
    C66      C        0.70520    0.56100    0.34970    1.000
    H19      H        0.71590    0.61830    0.36130    1.000
    C67      C        0.71890    0.53060    0.30240    1.000
    C68      C        0.70480    0.44440    0.28270    1.000
    C69      C        0.67560    0.39220    0.31500    1.000
    C70      C        0.66120    0.42090    0.36190    1.000
    H20      H        0.64180    0.38300    0.38180    1.000
    C71      C        0.71840    0.41500    0.23030    1.000
    C72      C        0.68210    0.42360    0.18710    1.000
    C73      C        0.69200    0.39290    0.13840    1.000
    H21      H        0.66610    0.39800    0.11090    1.000
    C74      C        0.74120    0.35480    0.13150    1.000
    C75      C        0.77840    0.34660    0.17270    1.000
    H22      H        0.81180    0.32250    0.16810    1.000
    C76      C        0.76650    0.37430    0.22130    1.000
    C77      C        0.63310    0.82560    0.61430    1.000
    C78      C        0.59340    0.81880    0.65450    1.000
    C79      C        0.55250    0.75660    0.64930    1.000
    H23      H        0.54860    0.71900    0.62060    1.000
    C80      C        0.51740    0.75020    0.68690    1.000
    C81      C        0.52030    0.80400    0.73040    1.000
    C82      C        0.56230    0.86620    0.73450    1.000
    C83      C        0.59890    0.87290    0.69700    1.000
    H24      H        0.62690    0.91420    0.70120    1.000
    C84      C        0.75440    0.32280    0.07840    1.000
    N19      N        0.74860    0.59130    0.27190    1.000
    N20      N        0.66020    0.29890    0.30010    1.000
    N21      N        0.63040    0.46590    0.19130    1.000
    N22      N        0.80690    0.35500    0.26380    1.000
    N23      N        0.57180    0.92510    0.77910    1.000
    N24      N        0.47440    0.68300    0.67810    1.000
    O55      O        0.67850    0.61400    0.44669    1.000
    O56      O        0.62340    0.49630    0.44969    1.000
    O57      O        0.73500    0.67040    0.27040    1.000
    O58      O        0.65760    0.27870    0.25470    1.000
    O59      O        0.64910    0.24720    0.33390    1.000
    O60      O        0.79360    0.35840    0.30780    1.000
    O61      O        0.85090    0.33090    0.25367    1.000
    O62      O        0.62730    0.52790    0.22250    1.000
    O63      O        0.59240    0.43830    0.16360    1.000
    O64      O        0.62060    0.78150    0.57329    1.000
    O65      O        0.67330    0.87150    0.62401    1.000
    O66      O        0.46390    0.65620    0.63430    1.000
    O67      O        0.45090    0.65770    0.71435    1.000
    O68      O        0.59690    0.99190    0.77510    1.000
    O69      O        0.55690    0.89890    0.81980    1.000
    O70      O        0.80070    0.29620    0.07512    1.000
    O71      O        0.71751    0.32360    0.04327    1.000
    O72      O        0.78560    0.56080    0.24960    1.000
    Gd5      Gd       0.14975    0.75429    0.99292    1.000
    C85      C        0.15820    0.95870    0.93010    1.000
    C86      C        0.17590    0.99250    0.87950    1.000
    C87      C        0.20520    0.93900    0.84970    1.000
    H25      H        0.21590    0.88170    0.86130    1.000
    C88      C        0.21890    0.96940    0.80240    1.000
    C89      C        0.20480    0.05560    0.78270    1.000
    C90      C        0.17560    0.10780    0.81500    1.000
    C91      C        0.16120    0.07910    0.86190    1.000
    H26      H        0.14180    0.11700    0.88180    1.000
    C92      C        0.21840    0.08500    0.73030    1.000
    C93      C        0.18210    0.07640    0.68710    1.000
    C94      C        0.19200    0.10710    0.63840    1.000
    H27      H        0.16610    0.10200    0.61090    1.000
    C95      C        0.24120    0.14520    0.63150    1.000
    C96      C        0.27840    0.15340    0.67270    1.000
    H28      H        0.31180    0.17750    0.66810    1.000
    C97      C        0.26650    0.12570    0.72130    1.000
    C98      C        0.13310    0.67440    0.11430    1.000
    C99      C        0.09340    0.68120    0.15450    1.000
    C100     C        0.05250    0.74340    0.14930    1.000
    H29      H        0.04860    0.78100    0.12060    1.000
    C101     C        0.01740    0.74980    0.18690    1.000
    C102     C        0.02030    0.69600    0.23040    1.000
    C103     C        0.06230    0.63380    0.23450    1.000
    C104     C        0.09890    0.62710    0.19700    1.000
    H30      H        0.12690    0.58580    0.20120    1.000
    C105     C        0.25440    0.17720    0.57840    1.000
    N25      N        0.24860    0.90870    0.77190    1.000
    N26      N        0.16020    0.20110    0.80010    1.000
    N27      N        0.13040    0.03410    0.69130    1.000
    N28      N        0.30690    0.14500    0.76380    1.000
    N29      N        0.07180    0.57490    0.27910    1.000
    N30      N        0.97440    0.81700    0.17810    1.000
    O73      O        0.17850    0.88600    0.94669    1.000
    O74      O        0.12340    0.00370    0.94969    1.000
    O75      O        0.23500    0.82960    0.77040    1.000
    O76      O        0.15760    0.22130    0.75470    1.000
    O77      O        0.14910    0.25280    0.83390    1.000
    O78      O        0.29360    0.14160    0.80780    1.000
    O79      O        0.35090    0.16910    0.75367    1.000
    O80      O        0.12730    0.97210    0.72250    1.000
    O81      O        0.09240    0.06170    0.66360    1.000
    O82      O        0.12060    0.71850    0.07329    1.000
    O83      O        0.17330    0.62850    0.12401    1.000
    O84      O        0.96390    0.84380    0.13430    1.000
    O85      O        0.95090    0.84230    0.21435    1.000
    O86      O        0.09690    0.50810    0.27510    1.000
    O87      O        0.05690    0.60110    0.31980    1.000
    O88      O        0.30070    0.20380    0.57512    1.000
    O89      O        0.21751    0.17640    0.54327    1.000
    O90      O        0.28560    0.93920    0.74960    1.000
    Gd6      Gd       0.64975    0.25429    0.99292    1.000
    C106     C        0.65820    0.45870    0.93010    1.000
    C107     C        0.67590    0.49250    0.87950    1.000
    C108     C        0.70520    0.43900    0.84970    1.000
    H31      H        0.71590    0.38170    0.86130    1.000
    C109     C        0.71890    0.46940    0.80240    1.000
    C110     C        0.70480    0.55560    0.78270    1.000
    C111     C        0.67560    0.60780    0.81500    1.000
    C112     C        0.66120    0.57910    0.86190    1.000
    H32      H        0.64180    0.61700    0.88180    1.000
    C113     C        0.71840    0.58500    0.73030    1.000
    C114     C        0.68210    0.57640    0.68710    1.000
    C115     C        0.69200    0.60710    0.63840    1.000
    H33      H        0.66610    0.60200    0.61090    1.000
    C116     C        0.74120    0.64520    0.63150    1.000
    C117     C        0.77840    0.65340    0.67270    1.000
    H34      H        0.81180    0.67750    0.66810    1.000
    C118     C        0.76650    0.62570    0.72130    1.000
    C119     C        0.63310    0.17440    0.11430    1.000
    C120     C        0.59340    0.18120    0.15450    1.000
    C121     C        0.55250    0.24340    0.14930    1.000
    H35      H        0.54860    0.28100    0.12060    1.000
    C122     C        0.51740    0.24980    0.18690    1.000
    C123     C        0.52030    0.19600    0.23040    1.000
    C124     C        0.56230    0.13380    0.23450    1.000
    C125     C        0.59890    0.12710    0.19700    1.000
    H36      H        0.62690    0.08580    0.20120    1.000
    C126     C        0.75440    0.67720    0.57840    1.000
    N31      N        0.74860    0.40870    0.77190    1.000
    N32      N        0.66020    0.70110    0.80010    1.000
    N33      N        0.63040    0.53410    0.69130    1.000
    N34      N        0.80690    0.64500    0.76380    1.000
    N35      N        0.57180    0.07490    0.27910    1.000
    N36      N        0.47440    0.31700    0.17810    1.000
    O91      O        0.67850    0.38600    0.94669    1.000
    O92      O        0.62340    0.50370    0.94969    1.000
    O93      O        0.73500    0.32960    0.77040    1.000
    O94      O        0.65760    0.72130    0.75470    1.000
    O95      O        0.64910    0.75280    0.83390    1.000
    O96      O        0.79360    0.64160    0.80780    1.000
    O97      O        0.85090    0.66910    0.75367    1.000
    O98      O        0.62730    0.47210    0.72250    1.000
    O99      O        0.59240    0.56170    0.66360    1.000
    O100     O        0.62060    0.21850    0.07329    1.000
    O101     O        0.67330    0.12850    0.12401    1.000
    O102     O        0.46390    0.34380    0.13430    1.000
    O103     O        0.45090    0.34230    0.21435    1.000
    O104     O        0.59690    0.00810    0.27510    1.000
    O105     O        0.55690    0.10110    0.31980    1.000
    O106     O        0.80070    0.70380    0.57512    1.000
    O107     O        0.71751    0.67640    0.54327    1.000
    O108     O        0.78560    0.43920    0.74960    1.000
    Gd7      Gd       0.85025    0.75429    0.50708    1.000
    C127     C        0.84180    0.95870    0.56990    1.000
    C128     C        0.82410    0.99250    0.62050    1.000
    C129     C        0.79480    0.93900    0.65030    1.000
    H37      H        0.78410    0.88170    0.63870    1.000
    C130     C        0.78110    0.96940    0.69760    1.000
    C131     C        0.79520    0.05560    0.71730    1.000
    C132     C        0.82440    0.10780    0.68500    1.000
    C133     C        0.83880    0.07910    0.63810    1.000
    H38      H        0.85820    0.11700    0.61820    1.000
    C134     C        0.78160    0.08500    0.76970    1.000
    C135     C        0.81790    0.07640    0.81290    1.000
    C136     C        0.80800    0.10710    0.86160    1.000
    H39      H        0.83390    0.10200    0.88910    1.000
    C137     C        0.75880    0.14520    0.86850    1.000
    C138     C        0.72160    0.15340    0.82730    1.000
    H40      H        0.68820    0.17750    0.83190    1.000
    C139     C        0.73350    0.12570    0.77870    1.000
    C140     C        0.86690    0.67440    0.38570    1.000
    C141     C        0.90660    0.68120    0.34550    1.000
    C142     C        0.94750    0.74340    0.35070    1.000
    H41      H        0.95140    0.78100    0.37940    1.000
    C143     C        0.98260    0.74980    0.31310    1.000
    C144     C        0.97970    0.69600    0.26960    1.000
    C145     C        0.93770    0.63380    0.26550    1.000
    C146     C        0.90110    0.62710    0.30300    1.000
    H42      H        0.87310    0.58580    0.29880    1.000
    C147     C        0.74560    0.17720    0.92160    1.000
    N37      N        0.75140    0.90870    0.72810    1.000
    N38      N        0.83980    0.20110    0.69990    1.000
    N39      N        0.86960    0.03410    0.80870    1.000
    N40      N        0.69310    0.14500    0.73620    1.000
    N41      N        0.92820    0.57490    0.22090    1.000
    N42      N        0.02560    0.81700    0.32190    1.000
    O109     O        0.82150    0.88600    0.55331    1.000
    O110     O        0.87660    0.00370    0.55031    1.000
    O111     O        0.76500    0.82960    0.72960    1.000
    O112     O        0.84240    0.22130    0.74530    1.000
    O113     O        0.85090    0.25280    0.66610    1.000
    O114     O        0.70640    0.14160    0.69220    1.000
    O115     O        0.64910    0.16910    0.74633    1.000
    O116     O        0.87270    0.97210    0.77750    1.000
    O117     O        0.90760    0.06170    0.83640    1.000
    O118     O        0.87940    0.71850    0.42671    1.000
    O119     O        0.82670    0.62850    0.37599    1.000
    O120     O        0.03610    0.84380    0.36570    1.000
    O121     O        0.04910    0.84230    0.28565    1.000
    O122     O        0.90310    0.50810    0.22490    1.000
    O123     O        0.94310    0.60110    0.18020    1.000
    O124     O        0.69930    0.20380    0.92488    1.000
    O125     O        0.78249    0.17640    0.95673    1.000
    O126     O        0.71440    0.93920    0.75040    1.000
    Gd8      Gd       0.35025    0.25429    0.50708    1.000
    C148     C        0.34180    0.45870    0.56990    1.000
    C149     C        0.32410    0.49250    0.62050    1.000
    C150     C        0.29480    0.43900    0.65030    1.000
    H43      H        0.28410    0.38170    0.63870    1.000
    C151     C        0.28110    0.46940    0.69760    1.000
    C152     C        0.29520    0.55560    0.71730    1.000
    C153     C        0.32440    0.60780    0.68500    1.000
    C154     C        0.33880    0.57910    0.63810    1.000
    H44      H        0.35820    0.61700    0.61820    1.000
    C155     C        0.28160    0.58500    0.76970    1.000
    C156     C        0.31790    0.57640    0.81290    1.000
    C157     C        0.30800    0.60710    0.86160    1.000
    H45      H        0.33390    0.60200    0.88910    1.000
    C158     C        0.25880    0.64520    0.86850    1.000
    C159     C        0.22160    0.65340    0.82730    1.000
    H46      H        0.18820    0.67750    0.83190    1.000
    C160     C        0.23350    0.62570    0.77870    1.000
    C161     C        0.36690    0.17440    0.38570    1.000
    C162     C        0.40660    0.18120    0.34550    1.000
    C163     C        0.44750    0.24340    0.35070    1.000
    H47      H        0.45140    0.28100    0.37940    1.000
    C164     C        0.48260    0.24980    0.31310    1.000
    C165     C        0.47970    0.19600    0.26960    1.000
    C166     C        0.43770    0.13380    0.26550    1.000
    C167     C        0.40110    0.12710    0.30300    1.000
    H48      H        0.37310    0.08580    0.29880    1.000
    C168     C        0.24560    0.67720    0.92160    1.000
    N43      N        0.25140    0.40870    0.72810    1.000
    N44      N        0.33980    0.70110    0.69990    1.000
    N45      N        0.36960    0.53410    0.80870    1.000
    N46      N        0.19310    0.64500    0.73620    1.000
    N47      N        0.42820    0.07490    0.22090    1.000
    N48      N        0.52560    0.31700    0.32190    1.000
    O127     O        0.32150    0.38600    0.55331    1.000
    O128     O        0.37660    0.50370    0.55031    1.000
    O129     O        0.26500    0.32960    0.72960    1.000
    O130     O        0.34240    0.72130    0.74530    1.000
    O131     O        0.35090    0.75280    0.66610    1.000
    O132     O        0.20640    0.64160    0.69220    1.000
    O133     O        0.14910    0.66910    0.74633    1.000
    O134     O        0.37270    0.47210    0.77750    1.000
    O135     O        0.40760    0.56170    0.83640    1.000
    O136     O        0.37940    0.21850    0.42671    1.000
    O137     O        0.32670    0.12850    0.37599    1.000
    O138     O        0.53610    0.34380    0.36570    1.000
    O139     O        0.54910    0.34230    0.28565    1.000
    O140     O        0.40310    0.00810    0.22490    1.000
    O141     O        0.44310    0.10110    0.18020    1.000
    O142     O        0.19930    0.70380    0.92488    1.000
    O143     O        0.28249    0.67640    0.95673    1.000
    O144     O        0.21440    0.43920    0.75040    1.000
