# CIF file generated by openbabel 3.1.0, see https://openbabel.org
data_I
_chemical_name_common 'VAZLEP01_clean'
_cell_length_a 7.3165
_cell_length_b 9.7247
_cell_length_c 14.7458
_cell_angle_alpha 90
_cell_angle_beta 100.062
_cell_angle_gamma 90
_space_group_name_H-M_alt 'P 1'
_space_group_name_Hall 'P 1'
loop_
    _symmetry_equiv_pos_as_xyz
    x,y,z
loop_
    _atom_site_label
    _atom_site_type_symbol
    _atom_site_fract_x
    _atom_site_fract_y
    _atom_site_fract_z
    _atom_site_occupancy
    Eu1      Eu       0.63219    0.55425    0.35641    1.000
    Eu2      Eu       0.36781    0.44575    0.64359    1.000
    Eu3      Eu       0.86781    0.05425    0.14359    1.000
    Eu4      Eu       0.13219    0.94575    0.85641    1.000
    H1       H        0.32370    0.66900    0.04720    1.000
    H2       H        0.72400    0.04600    0.62700    1.000
    H3       H        0.77600    0.54600    0.87300    1.000
    H4       H        0.22400    0.45400    0.12700    1.000
    H5       H        0.17630    0.16900    0.45280    1.000
    H6       H        0.27600    0.95400    0.37300    1.000
    H7       H        0.82370    0.83100    0.54720    1.000
    H8       H        0.67630    0.33100    0.95280    1.000
    C1       C        0.45690    0.96499    0.03865    1.000
    C2       C        0.68820    0.13290    0.49667    1.000
    C3       C        0.81180    0.63290    0.00333    1.000
    C4       C        0.77570    0.95087    0.42915    1.000
    C5       C        0.28640    0.58310    0.01929    1.000
    C6       C        0.60630    0.27230    0.49614    1.000
    C7       C        0.22430    0.04913    0.57085    1.000
    C8       C        0.81620    0.87420    0.34873    1.000
    C9       C        0.72430    0.45087    0.07085    1.000
    C10      C        0.04310    0.46499    0.46135    1.000
    C11      C        0.78640    0.91690    0.51929    1.000
    C12      C        0.76960    0.53620    0.93647    1.000
    C13      C        0.10630    0.22770    0.99614    1.000
    C14      C        0.18820    0.36710    0.99667    1.000
    C15      C        0.31620    0.62580    0.84873    1.000
    C16      C        0.95690    0.53501    0.53865    1.000
    C17      C        0.26960    0.96380    0.43647    1.000
    C18      C        0.27570    0.54913    0.92915    1.000
    C19      C        0.71360    0.41690    0.98071    1.000
    C20      C        0.39370    0.72770    0.50386    1.000
    C21      C        0.21360    0.08310    0.48071    1.000
    C22      C        0.31180    0.86710    0.50333    1.000
    C23      C        0.18380    0.12580    0.65127    1.000
    C24      C        0.23040    0.46380    0.06353    1.000
    C25      C        0.54310    0.03501    0.96135    1.000
    C26      C        0.73040    0.03620    0.56353    1.000
    C27      C        0.89370    0.77230    0.00386    1.000
    C28      C        0.68380    0.37420    0.15127    1.000
    O1       O        0.91820    0.83764    0.07881    1.000
    O2       O        0.33910    0.75528    0.85832    1.000
    O3       O        0.67390    0.43858    0.22340    1.000
    O4       O        0.21780    0.41643    0.91381    1.000
    O5       O        0.28220    0.91643    0.58619    1.000
    O6       O        0.55950    0.95086    0.11553    1.000
    O7       O        0.16090    0.25528    0.64168    1.000
    O8       O        0.66090    0.24472    0.14168    1.000
    O9       O        0.41820    0.66236    0.57881    1.000
    O10      O        0.94050    0.45086    0.38447    1.000
    O11      O        0.20940    0.42742    0.48226    1.000
    O12      O        0.93520    0.81277    0.92938    1.000
    O13      O        0.17390    0.06142    0.72340    1.000
    O14      O        0.29060    0.92742    0.01774    1.000
    O15      O        0.56480    0.31277    0.57062    1.000
    O16      O        0.83910    0.74472    0.35832    1.000
    O17      O        0.78220    0.58357    0.08619    1.000
    O18      O        0.08180    0.16236    0.92119    1.000
    O19      O        0.82610    0.93858    0.27660    1.000
    O20      O        0.44050    0.04914    0.88447    1.000
    O21      O        0.70940    0.07258    0.98226    1.000
    O22      O        0.32610    0.56142    0.77660    1.000
    O23      O        0.71780    0.08357    0.41381    1.000
    O24      O        0.79060    0.57258    0.51774    1.000
    O25      O        0.58180    0.33764    0.42119    1.000
    O26      O        0.06480    0.18723    0.07062    1.000
    O27      O        0.05950    0.54914    0.61553    1.000
    O28      O        0.43520    0.68723    0.42938    1.000
