# CIF file generated by openbabel 3.1.0, see https://openbabel.org
data_I
_chemical_name_common 'image0'
_cell_length_a 18.224
_cell_length_b 18.239
_cell_length_c 20.808
_cell_angle_alpha 85.942
_cell_angle_beta 83.558
_cell_angle_gamma 63.398
_space_group_name_H-M_alt 'P 1'
_space_group_name_Hall 'P 1'
loop_
    _symmetry_equiv_pos_as_xyz
    x,y,z
loop_
    _atom_site_label
    _atom_site_type_symbol
    _atom_site_fract_x
    _atom_site_fract_y
    _atom_site_fract_z
    _atom_site_occupancy
    Cd1      Cd       0.42341    0.17257    0.71522    1.000
    Cd2      Cd       0.61851    0.58806    0.72310    1.000
    Cd3      Cd       0.97308    0.21422    0.25908    1.000
    O1       O        0.49010    0.02840    0.69300    1.000
    O2       O        0.55800    0.07510    0.74630    1.000
    O3       O        0.86440    0.89990    0.73970    1.000
    O4       O        0.91910    0.77330    0.70570    1.000
    O5       O        0.72630    0.65120    0.67000    1.000
    O6       O        0.59780    0.71980    0.71140    1.000
    O7       O        0.46300    0.28430    0.74830    1.000
    O8       O        0.33530    0.31840    0.72820    1.000
    O9       O        0.55330    0.50300    0.74720    1.000
    O10      O        0.46580    0.63340    0.73420    1.000
    O11      O        0.16300    0.70520    0.74960    1.000
    O12      O        0.13170    0.61630    0.71060    1.000
    C1       C        0.55410    0.01720    0.71790    1.000
    C2       C        0.62550    0.93470    0.71480    1.000
    C3       C        0.70470    0.92490    0.72150    1.000
    H1       H        0.71190    0.97000    0.73140    1.000
    C4       C        0.77290    0.84960    0.71360    1.000
    C5       C        0.85740    0.84050    0.71900    1.000
    C6       C        0.76110    0.78060    0.70070    1.000
    H2       H        0.80620    0.72980    0.69370    1.000
    C7       C        0.68160    0.78950    0.69870    1.000
    C8       C        0.67000    0.71530    0.69120    1.000
    C9       C        0.61430    0.86690    0.70430    1.000
    H3       H        0.56150    0.87260    0.70100    1.000
    C10      C        0.39110    0.33770    0.73990    1.000
    C11      C        0.37060    0.42650    0.74080    1.000
    C12      C        0.43130    0.45160    0.74330    1.000
    H4       H        0.48550    0.41230    0.74620    1.000
    C13      C        0.41320    0.53410    0.74170    1.000
    C14      C        0.48020    0.55980    0.74090    1.000
    C15      C        0.33100    0.59350    0.73920    1.000
    H5       H        0.31800    0.64900    0.73900    1.000
    C16      C        0.26940    0.56890    0.73720    1.000
    C17      C        0.18250    0.63370    0.73330    1.000
    C18      C        0.28900    0.48590    0.73740    1.000
    H6       H        0.24760    0.46970    0.73520    1.000
    C19      C        0.24380    0.25580    0.66330    1.000
    H7       H        0.24890    0.30420    0.66340    1.000
    C20      C        0.27050    0.12750    0.67170    1.000
    C21      C        0.30610    0.04310    0.68070    1.000
    H8       H        0.36080    0.01430    0.68990    1.000
    C22      C        0.25930    0.00370    0.67590    1.000
    H9       H        0.28220    0.94710    0.68240    1.000
    C23      C        0.17640    0.04670    0.66120    1.000
    H10      H        0.14550    0.01810    0.65900    1.000
    C24      C        0.14080    0.13040    0.65030    1.000
    H11      H        0.08670    0.15870    0.63950    1.000
    C25      C        0.18870    0.17070    0.65590    1.000
    C26      C        0.10070    0.32490    0.63670    1.000
    C27      C        0.02470    0.32870    0.66120    1.000
    H12      H        0.02070    0.28580    0.68570    1.000
    C28      C        0.95550    0.39990    0.64730    1.000
    C29      C        0.95960    0.46500    0.61340    1.000
    H13      H        0.91150    0.51120    0.60460    1.000
    C30      C        0.03570    0.46190    0.59210    1.000
    C31      C        0.10600    0.39020    0.60190    1.000
    H14      H        0.15720    0.38590    0.58510    1.000
    C32      C        0.81200    0.47710    0.69250    1.000
    H15      H        0.81460    0.52700    0.69010    1.000
    C33      C        0.76890    0.38610    0.71060    1.000
    C34      C        0.72270    0.34210    0.72910    1.000
    H16      H        0.66920    0.36820    0.74850    1.000
    C35      C        0.75880    0.26020    0.71760    1.000
    H17      H        0.72970    0.23000    0.73040    1.000
    C36      C        0.83870    0.22040    0.68700    1.000
    H18      H        0.86060    0.16490    0.67840    1.000
    C37      C        0.88540    0.26150    0.66960    1.000
    H19      H        0.93870    0.23490    0.64970    1.000
    C38      C        0.84950    0.34520    0.68280    1.000
    C39      C        0.11530    0.53070    0.53520    1.000
    H20      H        0.16580    0.48470    0.53760    1.000
    C40      C        0.02560    0.65350    0.51830    1.000
    C41      C        0.98650    0.73470    0.50190    1.000
    H21      H        0.01630    0.76220    0.48330    1.000
    C42      C        0.90270    0.77500    0.51320    1.000
    H22      H        0.87500    0.83000    0.50110    1.000
    C43      C        0.85810    0.73390    0.54290    1.000
    H23      H        0.80120    0.76250    0.55080    1.000
    C44      C        0.89740    0.65110    0.56070    1.000
    H24      H        0.86770    0.62370    0.57990    1.000
    C45      C        0.98170    0.61140    0.54880    1.000
    C46      C        0.53290    0.23140    0.60960    1.000
    H25      H        0.54200    0.25610    0.64350    1.000
    C47      C        0.49100    0.16350    0.55480    1.000
    C48      C        0.45420    0.11780    0.53360    1.000
    H26      H        0.42250    0.09940    0.56190    1.000
    C49      C        0.46750    0.10140    0.46770    1.000
    H27      H        0.44400    0.07120    0.45180    1.000
    C50      C        0.51510    0.12920    0.42490    1.000
    H28      H        0.52220    0.11720    0.38130    1.000
    C51      C        0.55210    0.17410    0.44550    1.000
    H29      H        0.58360    0.19280    0.41710    1.000
    C52      C        0.53930    0.18950    0.51080    1.000
    C53      C        0.62100    0.26620    0.52810    1.000
    C54      C        0.69460    0.21970    0.49260    1.000
    H30      H        0.70660    0.16750    0.47960    1.000
    C55      C        0.75070    0.25220    0.47640    1.000
    C56      C        0.73360    0.32960    0.49500    1.000
    H31      H        0.77220    0.35000    0.48540    1.000
    C57      C        0.65840    0.37650    0.52810    1.000
    C58      C        0.60080    0.34600    0.54460    1.000
    H32      H        0.54980    0.37830    0.56620    1.000
    C59      C        0.86370    0.23640    0.39280    1.000
    H33      H        0.84350    0.29230    0.38330    1.000
    C60      C        0.93940    0.10620    0.39020    1.000
    C61      C        0.00080    0.02680    0.37820    1.000
    H34      H        0.04400    0.01710    0.34630    1.000
    C62      C        0.99560    0.96270    0.41510    1.000
    H35      H        0.03520    0.90910    0.40750    1.000
    C63      C        0.93140    0.97770    0.46360    1.000
    H36      H        0.93010    0.93340    0.48790    1.000
    C64      C        0.86990    0.05500    0.47730    1.000
    H37      H        0.82750    0.06430    0.50980    1.000
    C65      C        0.87560    0.11850    0.43880    1.000
    C66      C        0.65960    0.78120    0.14050    1.000
    H38      H        0.66260    0.72970    0.15140    1.000
    C67      C        0.63160    0.91000    0.14580    1.000
    C68      C        0.60210    0.99020    0.16390    1.000
    H39      H        0.57500    0.00770    0.20450    1.000
    C69      C        0.61480    0.04340    0.11840    1.000
    H40      H        0.59720    0.09800    0.12810    1.000
    C70      C        0.65600    0.01260    0.05510    1.000
    H41      H        0.66380    0.04900    0.02460    1.000
    C71      C        0.68290    0.93550    0.03890    1.000
    H42      H        0.70860    0.91900    0.99770    1.000
    C72      C        0.67280    0.87660    0.08440    1.000
    C73      C        0.61890    0.48260    0.60900    1.000
    H43      H        0.60710    0.45240    0.64290    1.000
    C74      C        0.63800    0.57800    0.55460    1.000
    C75      C        0.64410    0.64940    0.53350    1.000
    H44      H        0.63430    0.69030    0.56220    1.000
    C76      C        0.66510    0.65720    0.46850    1.000
    H45      H        0.67060    0.70390    0.45320    1.000
    C77      C        0.67840    0.59650    0.42530    1.000
    H46      H        0.69220    0.60410    0.38180    1.000
    C78      C        0.67180    0.52540    0.44470    1.000
    H47      H        0.67930    0.48560    0.41570    1.000
    C79      C        0.65340    0.51790    0.50980    1.000
    C80      C        0.67400    0.64180    0.84850    1.000
    H48      H        0.68910    0.67520    0.81990    1.000
    C81      C        0.63130    0.55480    0.88660    1.000
    C82      C        0.59980    0.49710    0.89560    1.000
    H49      H        0.58210    0.48060    0.86150    1.000
    C83      C        0.59640    0.46540    0.95930    1.000
    H50      H        0.57630    0.42660    0.96750    1.000
    C84      C        0.62150    0.49020    0.00800    1.000
    H51      H        0.61810    0.46780    0.04910    1.000
    C85      C        0.65150    0.54570    0.00040    1.000
    H52      H        0.66830    0.56180    0.03520    1.000
    C86      C        0.65620    0.57810    0.93890    1.000
    C87      C        0.72450    0.67200    0.94370    1.000
    C88      C        0.68780    0.71440    0.00080    1.000
    H53      H        0.63780    0.71780    0.02010    1.000
    C89      C        0.72880    0.75110    0.02740    1.000
    C90      C        0.80400    0.74590    0.00050    1.000
    H54      H        0.83080    0.77050    0.01970    1.000
    C91      C        0.83810    0.70280    0.94370    1.000
    C92      C        0.79890    0.66620    0.91400    1.000
    H55      H        0.82170    0.63870    0.87540    1.000
    C93      C        0.03570    0.03110    0.20370    1.000
    H56      H        0.08940    0.02090    0.20940    1.000
    C94      C        0.90410    0.09060    0.20230    1.000
    C95      C        0.82090    0.14350    0.20820    1.000
    H57      H        0.80080    0.19430    0.22730    1.000
    C96      C        0.76890    0.11720    0.18450    1.000
    H58      H        0.71260    0.15180    0.18660    1.000
    C97      C        0.79900    0.04010    0.15740    1.000
    H59      H        0.76180    0.02390    0.14360    1.000
    C98      C        0.87980    0.98850    0.15070    1.000
    H60      H        0.89950    0.93860    0.13050    1.000
    C99      C        0.93260    0.01330    0.17550    1.000
    C100     C        0.07350    0.89550    0.15540    1.000
    C101     C        0.05240    0.83270    0.16780    1.000
    H61      H        0.00420    0.84110    0.19340    1.000
    C102     C        0.10300    0.75630    0.14240    1.000
    C103     C        0.17660    0.74360    0.10550    1.000
    H62      H        0.21060    0.69280    0.08750    1.000
    C104     C        0.19780    0.80680    0.09610    1.000
    C105     C        0.14780    0.88380    0.11890    1.000
    H63      H        0.16230    0.92660    0.11060    1.000
    C106     C        0.13800    0.60910    0.16010    1.000
    H64      H        0.19480    0.59080    0.15450    1.000
    C107     C        0.01850    0.61100    0.17690    1.000
    C108     C        0.95320    0.59030    0.19010    1.000
    H65      H        0.96260    0.53600    0.19760    1.000
    C109     C        0.87340    0.65360    0.19180    1.000
    H66      H        0.82870    0.64170    0.20100    1.000
    C110     C        0.86000    0.73380    0.17980    1.000
    H67      H        0.80600    0.77470    0.18110    1.000
    C111     C        0.92360    0.75570    0.16610    1.000
    H68      H        0.91350    0.81010    0.15780    1.000
    C112     C        0.00400    0.69240    0.16540    1.000
    C113     C        0.33380    0.81050    0.08000    1.000
    H69      H        0.32690    0.83790    0.11790    1.000
    C114     C        0.38210    0.75540    0.98820    1.000
    C115     C        0.43010    0.72420    0.93050    1.000
    H70      H        0.48190    0.72280    0.92160    1.000
    C116     C        0.39900    0.69710    0.88940    1.000
    H71      H        0.43050    0.67410    0.85120    1.000
    C117     C        0.32170    0.70160    0.90090    1.000
    H72      H        0.30160    0.68410    0.86910    1.000
    C118     C        0.27250    0.73080    0.95720    1.000
    H73      H        0.22110    0.73110    0.96560    1.000
    C119     C        0.30500    0.75910    0.99950    1.000
    C120     C        0.91950    0.73690    0.85490    1.000
    H74      H        0.87580    0.76350    0.82930    1.000
    C121     C        0.03920    0.68780    0.88870    1.000
    C122     C        0.12170    0.66070    0.89740    1.000
    H75      H        0.15690    0.67110    0.86630    1.000
    C123     C        0.14950    0.61830    0.95330    1.000
    H76      H        0.20420    0.60140    0.96080    1.000
    C124     C        0.09870    0.59960    0.99910    1.000
    H77      H        0.12110    0.56880    0.03560    1.000
    C125     C        0.01710    0.62470    0.99270    1.000
    H78      H        0.98290    0.61300    0.02390    1.000
    C126     C        0.98870    0.66890    0.93620    1.000
    N1       N        0.30370    0.18350    0.67600    1.000
    N2       N        0.17380    0.25350    0.64990    1.000
    N3       N        0.74590    0.46930    0.71630    1.000
    N4       N        0.87610    0.40600    0.67170    1.000
    N5       N        0.10930    0.60100    0.50960    1.000
    N6       N        0.04260    0.53010    0.55800    1.000
    N7       N        0.48780    0.19020    0.61760    1.000
    N8       N        0.56440    0.23410    0.54820    1.000
    N9       N        0.93020    0.18080    0.36230    1.000
    N10      N        0.82680    0.20450    0.44010    1.000
    N11      N        0.62530    0.84230    0.18060    1.000
    N12      N        0.69040    0.79790    0.08220    1.000
    N13      N        0.61640    0.55450    0.61620    1.000
    N14      N        0.64030    0.45680    0.54700    1.000
    N15      N        0.64130    0.59700    0.83110    1.000
    N16      N        0.68410    0.63530    0.91230    1.000
    N17      N        0.97210    0.10010    0.21950    1.000
    N18      N        0.01730    0.97550    0.17840    1.000
    N19      N        0.10360    0.55950    0.17430    1.000
    N20      N        0.08290    0.69040    0.15430    1.000
    N21      N        0.40090    0.78520    0.04250    1.000
    N22      N        0.27370    0.79460    0.06090    1.000
    N23      N        0.99480    0.73050    0.83790    1.000
    N24      N        0.91260    0.70110    0.91260    1.000
    Cd4      Cd       0.57659    0.82743    0.28478    1.000
    Cd5      Cd       0.38149    0.41194    0.27690    1.000
    Cd6      Cd       0.02692    0.78578    0.74092    1.000
    O13      O        0.50990    0.97160    0.30700    1.000
    O14      O        0.44200    0.92490    0.25370    1.000
    O15      O        0.13560    0.10010    0.26030    1.000
    O16      O        0.08090    0.22670    0.29430    1.000
    O17      O        0.27370    0.34880    0.33000    1.000
    O18      O        0.40220    0.28020    0.28860    1.000
    O19      O        0.53700    0.71570    0.25170    1.000
    O20      O        0.66470    0.68160    0.27180    1.000
    O21      O        0.44670    0.49700    0.25280    1.000
    O22      O        0.53420    0.36660    0.26580    1.000
    O23      O        0.83700    0.29480    0.25040    1.000
    O24      O        0.86830    0.38370    0.28940    1.000
    C127     C        0.44590    0.98280    0.28210    1.000
    C128     C        0.37450    0.06530    0.28520    1.000
    C129     C        0.29530    0.07510    0.27850    1.000
    H79      H        0.28810    0.03000    0.26860    1.000
    C130     C        0.22710    0.15040    0.28640    1.000
    C131     C        0.14260    0.15950    0.28100    1.000
    C132     C        0.23890    0.21940    0.29930    1.000
    H80      H        0.19380    0.27020    0.30630    1.000
    C133     C        0.31840    0.21050    0.30130    1.000
    C134     C        0.33000    0.28470    0.30880    1.000
    C135     C        0.38570    0.13310    0.29570    1.000
    H81      H        0.43850    0.12740    0.29900    1.000
    C136     C        0.60890    0.66230    0.26010    1.000
    C137     C        0.62940    0.57350    0.25920    1.000
    C138     C        0.56870    0.54840    0.25670    1.000
    H82      H        0.51450    0.58770    0.25380    1.000
    C139     C        0.58680    0.46590    0.25830    1.000
    C140     C        0.51980    0.44020    0.25910    1.000
    C141     C        0.66900    0.40650    0.26080    1.000
    H83      H        0.68200    0.35100    0.26100    1.000
    C142     C        0.73060    0.43110    0.26280    1.000
    C143     C        0.81750    0.36630    0.26670    1.000
    C144     C        0.71100    0.51410    0.26260    1.000
    H84      H        0.75240    0.53030    0.26480    1.000
    C145     C        0.75620    0.74420    0.33670    1.000
    H85      H        0.75110    0.69580    0.33660    1.000
    C146     C        0.72950    0.87250    0.32830    1.000
    C147     C        0.69390    0.95690    0.31930    1.000
    H86      H        0.63920    0.98570    0.31010    1.000
    C148     C        0.74070    0.99630    0.32410    1.000
    H87      H        0.71780    0.05290    0.31760    1.000
    C149     C        0.82360    0.95330    0.33880    1.000
    H88      H        0.85450    0.98190    0.34100    1.000
    C150     C        0.85920    0.86960    0.34970    1.000
    H89      H        0.91330    0.84130    0.36050    1.000
    C151     C        0.81130    0.82930    0.34410    1.000
    C152     C        0.89930    0.67510    0.36330    1.000
    C153     C        0.97530    0.67130    0.33880    1.000
    H90      H        0.97930    0.71420    0.31430    1.000
    C154     C        0.04450    0.60010    0.35270    1.000
    C155     C        0.04040    0.53500    0.38660    1.000
    H91      H        0.08850    0.48880    0.39540    1.000
    C156     C        0.96430    0.53810    0.40790    1.000
    C157     C        0.89400    0.60980    0.39810    1.000
    H92      H        0.84280    0.61410    0.41490    1.000
    C158     C        0.18800    0.52290    0.30750    1.000
    H93      H        0.18540    0.47300    0.30990    1.000
    C159     C        0.23110    0.61390    0.28940    1.000
    C160     C        0.27730    0.65790    0.27090    1.000
    H94      H        0.33080    0.63180    0.25150    1.000
    C161     C        0.24120    0.73980    0.28240    1.000
    H95      H        0.27030    0.77000    0.26960    1.000
    C162     C        0.16130    0.77960    0.31300    1.000
    H96      H        0.13940    0.83510    0.32160    1.000
    C163     C        0.11460    0.73850    0.33040    1.000
    H97      H        0.06130    0.76510    0.35030    1.000
    C164     C        0.15050    0.65480    0.31720    1.000
    C165     C        0.88470    0.46930    0.46480    1.000
    H98      H        0.83420    0.51530    0.46240    1.000
    C166     C        0.97440    0.34650    0.48170    1.000
    C167     C        0.01350    0.26530    0.49810    1.000
    H99      H        0.98370    0.23780    0.51670    1.000
    C168     C        0.09730    0.22500    0.48680    1.000
    H100     H        0.12500    0.17000    0.49890    1.000
    C169     C        0.14190    0.26610    0.45710    1.000
    H101     H        0.19880    0.23750    0.44920    1.000
    C170     C        0.10260    0.34890    0.43930    1.000
    H102     H        0.13230    0.37630    0.42010    1.000
    C171     C        0.01830    0.38860    0.45120    1.000
    C172     C        0.46710    0.76860    0.39040    1.000
    H103     H        0.45800    0.74390    0.35650    1.000
    C173     C        0.50900    0.83650    0.44520    1.000
    C174     C        0.54580    0.88220    0.46640    1.000
    H104     H        0.57750    0.90060    0.43810    1.000
    C175     C        0.53250    0.89860    0.53230    1.000
    H105     H        0.55600    0.92880    0.54820    1.000
    C176     C        0.48490    0.87080    0.57510    1.000
    H106     H        0.47780    0.88280    0.61870    1.000
    C177     C        0.44790    0.82590    0.55450    1.000
    H107     H        0.41640    0.80720    0.58290    1.000
    C178     C        0.46070    0.81050    0.48920    1.000
    C179     C        0.37900    0.73380    0.47190    1.000
    C180     C        0.30540    0.78030    0.50740    1.000
    H108     H        0.29340    0.83250    0.52040    1.000
    C181     C        0.24930    0.74780    0.52360    1.000
    C182     C        0.26640    0.67040    0.50500    1.000
    H109     H        0.22780    0.65000    0.51460    1.000
    C183     C        0.34160    0.62350    0.47190    1.000
    C184     C        0.39920    0.65400    0.45540    1.000
    H110     H        0.45020    0.62170    0.43380    1.000
    C185     C        0.13630    0.76360    0.60720    1.000
    H111     H        0.15650    0.70770    0.61670    1.000
    C186     C        0.06060    0.89380    0.60980    1.000
    C187     C        0.99920    0.97320    0.62180    1.000
    H112     H        0.95600    0.98290    0.65370    1.000
    C188     C        0.00440    0.03730    0.58490    1.000
    H113     H        0.96480    0.09090    0.59250    1.000
    C189     C        0.06860    0.02230    0.53640    1.000
    H114     H        0.06990    0.06660    0.51210    1.000
    C190     C        0.13010    0.94500    0.52270    1.000
    H115     H        0.17250    0.93570    0.49020    1.000
    C191     C        0.12440    0.88150    0.56120    1.000
    C192     C        0.34040    0.21880    0.85950    1.000
    H116     H        0.33740    0.27030    0.84860    1.000
    C193     C        0.36840    0.09000    0.85420    1.000
    C194     C        0.39790    0.00980    0.83610    1.000
    H117     H        0.42500    0.99230    0.79550    1.000
    C195     C        0.38520    0.95660    0.88160    1.000
    H118     H        0.40280    0.90200    0.87190    1.000
    C196     C        0.34400    0.98740    0.94490    1.000
    H119     H        0.33620    0.95100    0.97540    1.000
    C197     C        0.31710    0.06450    0.96110    1.000
    H120     H        0.29140    0.08100    0.00230    1.000
    C198     C        0.32720    0.12340    0.91560    1.000
    C199     C        0.38110    0.51740    0.39100    1.000
    H121     H        0.39290    0.54760    0.35710    1.000
    C200     C        0.36200    0.42200    0.44540    1.000
    C201     C        0.35590    0.35060    0.46650    1.000
    H122     H        0.36570    0.30970    0.43780    1.000
    C202     C        0.33490    0.34280    0.53150    1.000
    H123     H        0.32940    0.29610    0.54680    1.000
    C203     C        0.32160    0.40350    0.57470    1.000
    H124     H        0.30780    0.39590    0.61820    1.000
    C204     C        0.32820    0.47460    0.55530    1.000
    H125     H        0.32070    0.51440    0.58430    1.000
    C205     C        0.34660    0.48210    0.49020    1.000
    C206     C        0.32600    0.35820    0.15150    1.000
    H126     H        0.31090    0.32480    0.18010    1.000
    C207     C        0.36870    0.44520    0.11340    1.000
    C208     C        0.40020    0.50290    0.10440    1.000
    H127     H        0.41790    0.51940    0.13850    1.000
    C209     C        0.40360    0.53460    0.04070    1.000
    H128     H        0.42370    0.57340    0.03250    1.000
    C210     C        0.37850    0.50980    0.99200    1.000
    H129     H        0.38190    0.53220    0.95090    1.000
    C211     C        0.34850    0.45430    0.99960    1.000
    H130     H        0.33170    0.43820    0.96480    1.000
    C212     C        0.34380    0.42190    0.06110    1.000
    C213     C        0.27550    0.32800    0.05630    1.000
    C214     C        0.31220    0.28560    0.99920    1.000
    H131     H        0.36220    0.28220    0.97990    1.000
    C215     C        0.27120    0.24890    0.97260    1.000
    C216     C        0.19600    0.25410    0.99950    1.000
    H132     H        0.16920    0.22950    0.98030    1.000
    C217     C        0.16190    0.29720    0.05630    1.000
    C218     C        0.20110    0.33380    0.08600    1.000
    H133     H        0.17830    0.36130    0.12460    1.000
    C219     C        0.96430    0.96890    0.79630    1.000
    H134     H        0.91060    0.97910    0.79060    1.000
    C220     C        0.09590    0.90940    0.79770    1.000
    C221     C        0.17910    0.85650    0.79180    1.000
    H135     H        0.19920    0.80570    0.77270    1.000
    C222     C        0.23110    0.88280    0.81550    1.000
    H136     H        0.28740    0.84820    0.81340    1.000
    C223     C        0.20100    0.95990    0.84260    1.000
    H137     H        0.23820    0.97610    0.85640    1.000
    C224     C        0.12020    0.01150    0.84930    1.000
    H138     H        0.10050    0.06140    0.86950    1.000
    C225     C        0.06740    0.98670    0.82450    1.000
    C226     C        0.92650    0.10450    0.84460    1.000
    C227     C        0.94760    0.16730    0.83220    1.000
    H139     H        0.99580    0.15890    0.80660    1.000
    C228     C        0.89700    0.24370    0.85760    1.000
    C229     C        0.82340    0.25640    0.89450    1.000
    H140     H        0.78940    0.30720    0.91250    1.000
    C230     C        0.80220    0.19320    0.90390    1.000
    C231     C        0.85220    0.11620    0.88110    1.000
    H141     H        0.83770    0.07340    0.88940    1.000
    C232     C        0.86200    0.39090    0.83990    1.000
    H142     H        0.80520    0.40920    0.84550    1.000
    C233     C        0.98150    0.38900    0.82310    1.000
    C234     C        0.04680    0.40970    0.80990    1.000
    H143     H        0.03740    0.46400    0.80240    1.000
    C235     C        0.12660    0.34640    0.80820    1.000
    H144     H        0.17130    0.35830    0.79900    1.000
    C236     C        0.14000    0.26620    0.82020    1.000
    H145     H        0.19400    0.22530    0.81890    1.000
    C237     C        0.07640    0.24430    0.83390    1.000
    H146     H        0.08650    0.18990    0.84220    1.000
    C238     C        0.99600    0.30760    0.83460    1.000
    C239     C        0.66620    0.18950    0.92000    1.000
    H147     H        0.67310    0.16210    0.88210    1.000
    C240     C        0.61790    0.24460    0.01180    1.000
    C241     C        0.56990    0.27580    0.06950    1.000
    H148     H        0.51810    0.27720    0.07840    1.000
    C242     C        0.60100    0.30290    0.11060    1.000
    H149     H        0.56950    0.32590    0.14880    1.000
    C243     C        0.67830    0.29840    0.09910    1.000
    H150     H        0.69840    0.31590    0.13090    1.000
    C244     C        0.72750    0.26920    0.04280    1.000
    H151     H        0.77890    0.26890    0.03440    1.000
    C245     C        0.69500    0.24090    0.00050    1.000
    C246     C        0.08050    0.26310    0.14510    1.000
    H152     H        0.12420    0.23650    0.17070    1.000
    C247     C        0.96080    0.31220    0.11130    1.000
    C248     C        0.87830    0.33930    0.10260    1.000
    H153     H        0.84310    0.32890    0.13370    1.000
    C249     C        0.85050    0.38170    0.04670    1.000
    H154     H        0.79580    0.39860    0.03920    1.000
    C250     C        0.90130    0.40040    0.00090    1.000
    H155     H        0.87890    0.43120    0.96440    1.000
    C251     C        0.98290    0.37530    0.00730    1.000
    H156     H        0.01710    0.38700    0.97610    1.000
    C252     C        0.01130    0.33110    0.06380    1.000
    N25      N        0.69630    0.81650    0.32400    1.000
    N26      N        0.82620    0.74650    0.35010    1.000
    N27      N        0.25410    0.53070    0.28370    1.000
    N28      N        0.12390    0.59400    0.32830    1.000
    N29      N        0.89070    0.39900    0.49040    1.000
    N30      N        0.95740    0.46990    0.44200    1.000
    N31      N        0.51220    0.80980    0.38240    1.000
    N32      N        0.43560    0.76590    0.45180    1.000
    N33      N        0.06980    0.81920    0.63770    1.000
    N34      N        0.17320    0.79550    0.55990    1.000
    N35      N        0.37470    0.15770    0.81940    1.000
    N36      N        0.30960    0.20210    0.91780    1.000
    N37      N        0.38360    0.44550    0.38380    1.000
    N38      N        0.35970    0.54320    0.45300    1.000
    N39      N        0.35870    0.40300    0.16890    1.000
    N40      N        0.31590    0.36470    0.08770    1.000
    N41      N        0.02790    0.89990    0.78050    1.000
    N42      N        0.98270    0.02450    0.82160    1.000
    N43      N        0.89640    0.44050    0.82570    1.000
    N44      N        0.91710    0.30960    0.84570    1.000
    N45      N        0.59910    0.21480    0.95750    1.000
    N46      N        0.72630    0.20540    0.93910    1.000
    N47      N        0.00520    0.26950    0.16210    1.000
    N48      N        0.08740    0.29890    0.08740    1.000
