# CIF file generated by openbabel 3.1.0, see https://openbabel.org
data_I
_chemical_name_common 'image0'
_cell_length_a 19.5856
_cell_length_b 19.5856
_cell_length_c 15.7843
_cell_angle_alpha 90
_cell_angle_beta 90
_cell_angle_gamma 120
_space_group_name_H-M_alt 'P 1'
_space_group_name_Hall 'P 1'
loop_
    _symmetry_equiv_pos_as_xyz
    x,y,z
loop_
    _atom_site_label
    _atom_site_type_symbol
    _atom_site_fract_x
    _atom_site_fract_y
    _atom_site_fract_z
    _atom_site_occupancy
    Ag1      Ag       0.39810    0.76914    0.77635    1.000
    Cl1      Cl       0.28526    0.75629    0.69964    1.000
    C1       C        0.46450    0.60730    0.40970    1.000
    C2       C        0.42700    0.47210    0.46050    1.000
    C3       C        0.48330    0.55200    0.45820    1.000
    C4       C        0.55690    0.58080    0.49660    1.000
    C5       C        0.27500    0.43960    0.49300    1.000
    H1       H        0.22310    0.42700    0.47130    1.000
    H2       H        0.30030    0.49180    0.51960    1.000
    H3       H        0.26870    0.40000    0.53500    1.000
    C6       C        0.62930    0.71890    0.58810    1.000
    H4       H        0.65490    0.77650    0.58620    1.000
    H5       H        0.65850    0.70330    0.62640    1.000
    H6       H        0.57510    0.69700    0.60850    1.000
    C7       C        0.49480    0.81720    0.09550    1.000
    C8       C        0.54290    0.87360    0.02530    1.000
    C9       C        0.62130    0.93040    0.03940    1.000
    C10      C        0.66310    0.98600    0.97520    1.000
    C11      C        0.62610    0.98340    0.89910    1.000
    C12      C        0.54790    0.92410    0.88380    1.000
    C13      C        0.50670    0.86910    0.94760    1.000
    C14      C        0.66830    0.05080    0.83610    1.000
    S1       S        0.66835    0.92378    0.13022    1.000
    S2       S        0.76050    0.06020    0.98620    1.000
    S3       S        0.49060    0.92351    0.79326    1.000
    C15      C        0.66290    0.99680    0.19110    1.000
    H7       H        0.69040    0.04740    0.16130    1.000
    H8       H        0.68780    0.00170    0.24630    1.000
    H9       H        0.60750    0.98170    0.19920    1.000
    C16      C        0.81620    0.02030    0.93760    1.000
    H10      H        0.79340    0.99800    0.88220    1.000
    H11      H        0.81450    0.97880    0.97380    1.000
    H12      H        0.87110    0.06240    0.93020    1.000
    C17      C        0.55190    0.93980    0.70250    1.000
    H13      H        0.58820    0.99650    0.69560    1.000
    H14      H        0.51880    0.91910    0.65190    1.000
    H15      H        0.58220    0.91290    0.71050    1.000
    O1       O        0.33140    0.23040    0.16580    1.000
    H16      H        0.32400    0.21200    0.11600    1.000
    H17      H        0.31700    0.26500    0.16400    1.000
    C18      C        0.35530    0.84700    0.95150    1.000
    H18      H        0.36630    0.87050    0.00820    1.000
    H19      H        0.29850    0.81130    0.94520    1.000
    H20      H        0.37340    0.88870    0.90870    1.000
    Eu1      Eu       0.44483    0.66309    0.21598    1.000
    O2       O        0.48433    0.61834    0.33317    1.000
    O3       O        0.42926    0.63680    0.44930    1.000
    O4       O        0.32680    0.58262    0.30034    1.000
    H21      H        0.32470    0.53370    0.32230    1.000
    O5       O        0.49741    0.75518    0.10397    1.000
    O6       O        0.45589    0.83895    0.14030    1.000
    O7       O        0.71920    0.05190    0.78740    1.000
    O8       O        0.64498    0.09990    0.83958    1.000
    S4       S        0.33562    0.43953    0.40645    1.000
    S5       S        0.62806    0.68260    0.48596    1.000
    S6       S        0.40672    0.79220    0.93756    1.000
    C19      C        0.19400    0.27120    0.14780    1.000
    C20      C        0.21100    0.19300    0.98200    1.000
    C21      C        0.50340    0.52720    0.77320    1.000
    H22      H        0.16550    0.29170    0.11540    1.000
    H23      H        0.17170    0.25690    0.20500    1.000
    H24      H        0.18920    0.22450    0.11940    1.000
    H25      H        0.19030    0.22500    0.00610    1.000
    H26      H        0.18200    0.13950    0.00420    1.000
    H27      H        0.20570    0.19180    0.91990    1.000
    H28      H        0.52260    0.51000    0.82150    1.000
    H29      H        0.52470    0.58430    0.77660    1.000
    H30      H        0.52080    0.51450    0.72030    1.000
    S7       S        0.29560    0.34510    0.15470    1.000
    S8       S        0.31330    0.23610    0.00870    1.000
    S9       S        0.39330    0.47550    0.77560    1.000
    Ag2      Ag       0.23086    0.62896    0.77635    1.000
    Cl2      Cl       0.24371    0.52897    0.69964    1.000
    C22      C        0.39270    0.85720    0.40970    1.000
    C23      C        0.52790    0.95490    0.46050    1.000
    C24      C        0.44800    0.93130    0.45820    1.000
    C25      C        0.41920    0.97610    0.49660    1.000
    C26      C        0.56040    0.83540    0.49300    1.000
    H31      H        0.57300    0.79610    0.47130    1.000
    H32      H        0.50820    0.80850    0.51960    1.000
    H33      H        0.60000    0.86870    0.53500    1.000
    C27      C        0.28110    0.91040    0.58810    1.000
    H34      H        0.22350    0.87840    0.58620    1.000
    H35      H        0.29670    0.95520    0.62640    1.000
    H36      H        0.30300    0.87810    0.60850    1.000
    C28      C        0.18280    0.67760    0.09550    1.000
    C29      C        0.12640    0.66930    0.02530    1.000
    C30      C        0.06960    0.69090    0.03940    1.000
    C31      C        0.01400    0.67710    0.97520    1.000
    C32      C        0.01660    0.64270    0.89910    1.000
    C33      C        0.07590    0.62380    0.88380    1.000
    C34      C        0.13090    0.63760    0.94760    1.000
    C35      C        0.94920    0.61750    0.83610    1.000
    S10      S        0.07622    0.74457    0.13022    1.000
    S11      S        0.93980    0.70030    0.98620    1.000
    S12      S        0.07649    0.56709    0.79326    1.000
    C36      C        0.00320    0.66610    0.19110    1.000
    H37      H        0.95260    0.64300    0.16130    1.000
    H38      H        0.99830    0.68610    0.24630    1.000
    H39      H        0.01830    0.62580    0.19920    1.000
    C37      C        0.97970    0.79590    0.93760    1.000
    H40      H        0.00200    0.79540    0.88220    1.000
    H41      H        0.02120    0.83570    0.97380    1.000
    H42      H        0.93760    0.80870    0.93020    1.000
    C38      C        0.06020    0.61210    0.70250    1.000
    H43      H        0.00350    0.59170    0.69560    1.000
    H44      H        0.08090    0.59970    0.65190    1.000
    H45      H        0.08710    0.66930    0.71050    1.000
    O9       O        0.76960    0.10100    0.16580    1.000
    H46      H        0.78800    0.11200    0.11600    1.000
    H47      H        0.73500    0.05200    0.16400    1.000
    C39      C        0.15300    0.50830    0.95150    1.000
    H48      H        0.12950    0.49580    0.00820    1.000
    H49      H        0.18870    0.48720    0.94520    1.000
    H50      H        0.11130    0.48470    0.90870    1.000
    Eu2      Eu       0.33691    0.78174    0.21598    1.000
    O10      O        0.38166    0.86599    0.33317    1.000
    O11      O        0.36320    0.79246    0.44930    1.000
    O12      O        0.41738    0.74418    0.30034    1.000
    H51      H        0.46630    0.79100    0.32230    1.000
    O13      O        0.24482    0.74223    0.10397    1.000
    O14      O        0.16105    0.61694    0.14030    1.000
    O15      O        0.94810    0.66730    0.78740    1.000
    O16      O        0.90010    0.54508    0.83958    1.000
    S13      S        0.56047    0.89609    0.40645    1.000
    S14      S        0.31740    0.94546    0.48596    1.000
    S15      S        0.20780    0.61452    0.93756    1.000
    C40      C        0.72880    0.92280    0.14780    1.000
    C41      C        0.80700    0.01800    0.98200    1.000
    C42      C        0.47280    0.97620    0.77320    1.000
    H52      H        0.70830    0.87380    0.11540    1.000
    H53      H        0.74310    0.91480    0.20500    1.000
    H54      H        0.77550    0.96470    0.11940    1.000
    H55      H        0.77500    0.96530    0.00610    1.000
    H56      H        0.86050    0.04250    0.00420    1.000
    H57      H        0.80820    0.01390    0.91990    1.000
    H58      H        0.49000    0.01260    0.82150    1.000
    H59      H        0.41570    0.94040    0.77660    1.000
    H60      H        0.48550    0.00630    0.72030    1.000
    S16      S        0.65490    0.95050    0.15470    1.000
    S17      S        0.76390    0.07720    0.00870    1.000
    S18      S        0.52450    0.91780    0.77560    1.000
    Ag3      Ag       0.37104    0.60190    0.77635    1.000
    Cl3      Cl       0.47103    0.71474    0.69964    1.000
    C43      C        0.14280    0.53550    0.40970    1.000
    C44      C        0.04510    0.57300    0.46050    1.000
    C45      C        0.06870    0.51670    0.45820    1.000
    C46      C        0.02390    0.44310    0.49660    1.000
    C47      C        0.16460    0.72500    0.49300    1.000
    H61      H        0.20390    0.77690    0.47130    1.000
    H62      H        0.19150    0.69970    0.51960    1.000
    H63      H        0.13130    0.73130    0.53500    1.000
    C48      C        0.08960    0.37070    0.58810    1.000
    H64      H        0.12160    0.34510    0.58620    1.000
    H65      H        0.04480    0.34150    0.62640    1.000
    H66      H        0.12190    0.42490    0.60850    1.000
    C49      C        0.32240    0.50520    0.09550    1.000
    C50      C        0.33070    0.45710    0.02530    1.000
    C51      C        0.30910    0.37870    0.03940    1.000
    C52      C        0.32290    0.33690    0.97520    1.000
    C53      C        0.35730    0.37390    0.89910    1.000
    C54      C        0.37620    0.45210    0.88380    1.000
    C55      C        0.36240    0.49330    0.94760    1.000
    C56      C        0.38250    0.33170    0.83610    1.000
    S19      S        0.25543    0.33165    0.13022    1.000
    S20      S        0.29970    0.23950    0.98620    1.000
    S21      S        0.43291    0.50940    0.79326    1.000
    C57      C        0.33390    0.33710    0.19110    1.000
    H67      H        0.35700    0.30960    0.16130    1.000
    H68      H        0.31390    0.31220    0.24630    1.000
    H69      H        0.37420    0.39250    0.19920    1.000
    C58      C        0.20410    0.18380    0.93760    1.000
    H70      H        0.20460    0.20660    0.88220    1.000
    H71      H        0.16430    0.18550    0.97380    1.000
    H72      H        0.19130    0.12890    0.93020    1.000
    C59      C        0.38790    0.44810    0.70250    1.000
    H73      H        0.40830    0.41180    0.69560    1.000
    H74      H        0.40030    0.48120    0.65190    1.000
    H75      H        0.33070    0.41780    0.71050    1.000
    O17      O        0.89900    0.66860    0.16580    1.000
    H76      H        0.88800    0.67600    0.11600    1.000
    H77      H        0.94800    0.68300    0.16400    1.000
    C60      C        0.49170    0.64470    0.95150    1.000
    H78      H        0.50420    0.63370    0.00820    1.000
    H79      H        0.51280    0.70150    0.94520    1.000
    H80      H        0.51530    0.62660    0.90870    1.000
    Eu3      Eu       0.21826    0.55517    0.21598    1.000
    O18      O        0.13401    0.51567    0.33317    1.000
    O19      O        0.20754    0.57074    0.44930    1.000
    O20      O        0.25582    0.67320    0.30034    1.000
    H81      H        0.20900    0.67530    0.32230    1.000
    O21      O        0.25777    0.50259    0.10397    1.000
    O22      O        0.38306    0.54411    0.14030    1.000
    O23      O        0.33270    0.28080    0.78740    1.000
    O24      O        0.45492    0.35502    0.83958    1.000
    S22      S        0.10391    0.66438    0.40645    1.000
    S23      S        0.05454    0.37194    0.48596    1.000
    S24      S        0.38548    0.59328    0.93756    1.000
    C61      C        0.07720    0.80600    0.14780    1.000
    C62      C        0.98200    0.78900    0.98200    1.000
    C63      C        0.02380    0.49660    0.77320    1.000
    H82      H        0.12620    0.83450    0.11540    1.000
    H83      H        0.08520    0.82830    0.20500    1.000
    H84      H        0.03530    0.81080    0.11940    1.000
    H85      H        0.03470    0.80970    0.00610    1.000
    H86      H        0.95750    0.81800    0.00420    1.000
    H87      H        0.98610    0.79430    0.91990    1.000
    H88      H        0.98740    0.47740    0.82150    1.000
    H89      H        0.05960    0.47530    0.77660    1.000
    H90      H        0.99370    0.47920    0.72030    1.000
    S25      S        0.04950    0.70440    0.15470    1.000
    S26      S        0.92280    0.68670    0.00870    1.000
    S27      S        0.08220    0.60670    0.77560    1.000
    Ag4      Ag       0.60190    0.23086    0.22365    1.000
    Cl4      Cl       0.71474    0.24371    0.30036    1.000
    C64      C        0.53550    0.39270    0.59030    1.000
    C65      C        0.57300    0.52790    0.53950    1.000
    C66      C        0.51670    0.44800    0.54180    1.000
    C67      C        0.44310    0.41920    0.50340    1.000
    C68      C        0.72500    0.56040    0.50700    1.000
    H91      H        0.77690    0.57300    0.52870    1.000
    H92      H        0.69970    0.50820    0.48040    1.000
    H93      H        0.73130    0.60000    0.46500    1.000
    C69      C        0.37070    0.28110    0.41190    1.000
    H94      H        0.34510    0.22350    0.41380    1.000
    H95      H        0.34150    0.29670    0.37360    1.000
    H96      H        0.42490    0.30300    0.39150    1.000
    C70      C        0.50520    0.18280    0.90450    1.000
    C71      C        0.45710    0.12640    0.97470    1.000
    C72      C        0.37870    0.06960    0.96060    1.000
    C73      C        0.33690    0.01400    0.02480    1.000
    C74      C        0.37390    0.01660    0.10090    1.000
    C75      C        0.45210    0.07590    0.11620    1.000
    C76      C        0.49330    0.13090    0.05240    1.000
    C77      C        0.33170    0.94920    0.16390    1.000
    S28      S        0.33165    0.07622    0.86978    1.000
    S29      S        0.23950    0.93980    0.01380    1.000
    S30      S        0.50940    0.07649    0.20674    1.000
    C78      C        0.33710    0.00320    0.80890    1.000
    H97      H        0.30960    0.95260    0.83870    1.000
    H98      H        0.31220    0.99830    0.75370    1.000
    H99      H        0.39250    0.01830    0.80080    1.000
    C79      C        0.18380    0.97970    0.06240    1.000
    H100     H        0.20660    0.00200    0.11780    1.000
    H101     H        0.18550    0.02120    0.02620    1.000
    H102     H        0.12890    0.93760    0.06980    1.000
    C80      C        0.44810    0.06020    0.29750    1.000
    H103     H        0.41180    0.00350    0.30440    1.000
    H104     H        0.48120    0.08090    0.34810    1.000
    H105     H        0.41780    0.08710    0.28950    1.000
    O25      O        0.66860    0.76960    0.83420    1.000
    H106     H        0.67600    0.78800    0.88400    1.000
    H107     H        0.68300    0.73500    0.83600    1.000
    C81      C        0.64470    0.15300    0.04850    1.000
    H108     H        0.63370    0.12950    0.99180    1.000
    H109     H        0.70150    0.18870    0.05480    1.000
    H110     H        0.62660    0.11130    0.09130    1.000
    Eu4      Eu       0.55517    0.33691    0.78402    1.000
    O26      O        0.51567    0.38166    0.66683    1.000
    O27      O        0.57074    0.36320    0.55070    1.000
    O28      O        0.67320    0.41738    0.69966    1.000
    H111     H        0.67530    0.46630    0.67770    1.000
    O29      O        0.50259    0.24482    0.89603    1.000
    O30      O        0.54411    0.16105    0.85970    1.000
    O31      O        0.28080    0.94810    0.21260    1.000
    O32      O        0.35502    0.90010    0.16042    1.000
    S31      S        0.66438    0.56047    0.59355    1.000
    S32      S        0.37194    0.31740    0.51404    1.000
    S33      S        0.59328    0.20780    0.06244    1.000
    C82      C        0.80600    0.72880    0.85220    1.000
    C83      C        0.78900    0.80700    0.01800    1.000
    C84      C        0.49660    0.47280    0.22680    1.000
    H112     H        0.83450    0.70830    0.88460    1.000
    H113     H        0.82830    0.74310    0.79500    1.000
    H114     H        0.81080    0.77550    0.88060    1.000
    H115     H        0.80970    0.77500    0.99390    1.000
    H116     H        0.81800    0.86050    0.99580    1.000
    H117     H        0.79430    0.80820    0.08010    1.000
    H118     H        0.47740    0.49000    0.17850    1.000
    H119     H        0.47530    0.41570    0.22340    1.000
    H120     H        0.47920    0.48550    0.27970    1.000
    S34      S        0.70440    0.65490    0.84530    1.000
    S35      S        0.68670    0.76390    0.99130    1.000
    S36      S        0.60670    0.52450    0.22440    1.000
    Ag5      Ag       0.76914    0.37104    0.22365    1.000
    Cl5      Cl       0.75629    0.47103    0.30036    1.000
    C85      C        0.60730    0.14280    0.59030    1.000
    C86      C        0.47210    0.04510    0.53950    1.000
    C87      C        0.55200    0.06870    0.54180    1.000
    C88      C        0.58080    0.02390    0.50340    1.000
    C89      C        0.43960    0.16460    0.50700    1.000
    H121     H        0.42700    0.20390    0.52870    1.000
    H122     H        0.49180    0.19150    0.48040    1.000
    H123     H        0.40000    0.13130    0.46500    1.000
    C90      C        0.71890    0.08960    0.41190    1.000
    H124     H        0.77650    0.12160    0.41380    1.000
    H125     H        0.70330    0.04480    0.37360    1.000
    H126     H        0.69700    0.12190    0.39150    1.000
    C91      C        0.81720    0.32240    0.90450    1.000
    C92      C        0.87360    0.33070    0.97470    1.000
    C93      C        0.93040    0.30910    0.96060    1.000
    C94      C        0.98600    0.32290    0.02480    1.000
    C95      C        0.98340    0.35730    0.10090    1.000
    C96      C        0.92410    0.37620    0.11620    1.000
    C97      C        0.86910    0.36240    0.05240    1.000
    C98      C        0.05080    0.38250    0.16390    1.000
    S37      S        0.92378    0.25543    0.86978    1.000
    S38      S        0.06020    0.29970    0.01380    1.000
    S39      S        0.92351    0.43291    0.20674    1.000
    C99      C        0.99680    0.33390    0.80890    1.000
    H127     H        0.04740    0.35700    0.83870    1.000
    H128     H        0.00170    0.31390    0.75370    1.000
    H129     H        0.98170    0.37420    0.80080    1.000
    C100     C        0.02030    0.20410    0.06240    1.000
    H130     H        0.99800    0.20460    0.11780    1.000
    H131     H        0.97880    0.16430    0.02620    1.000
    H132     H        0.06240    0.19130    0.06980    1.000
    C101     C        0.93980    0.38790    0.29750    1.000
    H133     H        0.99650    0.40830    0.30440    1.000
    H134     H        0.91910    0.40030    0.34810    1.000
    H135     H        0.91290    0.33070    0.28950    1.000
    O33      O        0.23040    0.89900    0.83420    1.000
    H136     H        0.21200    0.88800    0.88400    1.000
    H137     H        0.26500    0.94800    0.83600    1.000
    C102     C        0.84700    0.49170    0.04850    1.000
    H138     H        0.87050    0.50420    0.99180    1.000
    H139     H        0.81130    0.51280    0.05480    1.000
    H140     H        0.88870    0.51530    0.09130    1.000
    Eu5      Eu       0.66309    0.21826    0.78402    1.000
    O34      O        0.61834    0.13401    0.66683    1.000
    O35      O        0.63680    0.20754    0.55070    1.000
    O36      O        0.58262    0.25582    0.69966    1.000
    H141     H        0.53370    0.20900    0.67770    1.000
    O37      O        0.75518    0.25777    0.89603    1.000
    O38      O        0.83895    0.38306    0.85970    1.000
    O39      O        0.05190    0.33270    0.21260    1.000
    O40      O        0.09990    0.45492    0.16042    1.000
    S40      S        0.43953    0.10391    0.59355    1.000
    S41      S        0.68260    0.05454    0.51404    1.000
    S42      S        0.79220    0.38548    0.06244    1.000
    C103     C        0.27120    0.07720    0.85220    1.000
    C104     C        0.19300    0.98200    0.01800    1.000
    C105     C        0.52720    0.02380    0.22680    1.000
    H142     H        0.29170    0.12620    0.88460    1.000
    H143     H        0.25690    0.08520    0.79500    1.000
    H144     H        0.22450    0.03530    0.88060    1.000
    H145     H        0.22500    0.03470    0.99390    1.000
    H146     H        0.13950    0.95750    0.99580    1.000
    H147     H        0.19180    0.98610    0.08010    1.000
    H148     H        0.51000    0.98740    0.17850    1.000
    H149     H        0.58430    0.05960    0.22340    1.000
    H150     H        0.51450    0.99370    0.27970    1.000
    S43      S        0.34510    0.04950    0.84530    1.000
    S44      S        0.23610    0.92280    0.99130    1.000
    S45      S        0.47550    0.08220    0.22440    1.000
    Ag6      Ag       0.62896    0.39810    0.22365    1.000
    Cl6      Cl       0.52897    0.28526    0.30036    1.000
    C106     C        0.85720    0.46450    0.59030    1.000
    C107     C        0.95490    0.42700    0.53950    1.000
    C108     C        0.93130    0.48330    0.54180    1.000
    C109     C        0.97610    0.55690    0.50340    1.000
    C110     C        0.83540    0.27500    0.50700    1.000
    H151     H        0.79610    0.22310    0.52870    1.000
    H152     H        0.80850    0.30030    0.48040    1.000
    H153     H        0.86870    0.26870    0.46500    1.000
    C111     C        0.91040    0.62930    0.41190    1.000
    H154     H        0.87840    0.65490    0.41380    1.000
    H155     H        0.95520    0.65850    0.37360    1.000
    H156     H        0.87810    0.57510    0.39150    1.000
    C112     C        0.67760    0.49480    0.90450    1.000
    C113     C        0.66930    0.54290    0.97470    1.000
    C114     C        0.69090    0.62130    0.96060    1.000
    C115     C        0.67710    0.66310    0.02480    1.000
    C116     C        0.64270    0.62610    0.10090    1.000
    C117     C        0.62380    0.54790    0.11620    1.000
    C118     C        0.63760    0.50670    0.05240    1.000
    C119     C        0.61750    0.66830    0.16390    1.000
    S46      S        0.74457    0.66835    0.86978    1.000
    S47      S        0.70030    0.76050    0.01380    1.000
    S48      S        0.56709    0.49060    0.20674    1.000
    C120     C        0.66610    0.66290    0.80890    1.000
    H157     H        0.64300    0.69040    0.83870    1.000
    H158     H        0.68610    0.68780    0.75370    1.000
    H159     H        0.62580    0.60750    0.80080    1.000
    C121     C        0.79590    0.81620    0.06240    1.000
    H160     H        0.79540    0.79340    0.11780    1.000
    H161     H        0.83570    0.81450    0.02620    1.000
    H162     H        0.80870    0.87110    0.06980    1.000
    C122     C        0.61210    0.55190    0.29750    1.000
    H163     H        0.59170    0.58820    0.30440    1.000
    H164     H        0.59970    0.51880    0.34810    1.000
    H165     H        0.66930    0.58220    0.28950    1.000
    O41      O        0.10100    0.33140    0.83420    1.000
    H166     H        0.11200    0.32400    0.88400    1.000
    H167     H        0.05200    0.31700    0.83600    1.000
    C123     C        0.50830    0.35530    0.04850    1.000
    H168     H        0.49580    0.36630    0.99180    1.000
    H169     H        0.48720    0.29850    0.05480    1.000
    H170     H        0.48470    0.37340    0.09130    1.000
    Eu6      Eu       0.78174    0.44483    0.78402    1.000
    O42      O        0.86599    0.48433    0.66683    1.000
    O43      O        0.79246    0.42926    0.55070    1.000
    O44      O        0.74418    0.32680    0.69966    1.000
    H171     H        0.79100    0.32470    0.67770    1.000
    O45      O        0.74223    0.49741    0.89603    1.000
    O46      O        0.61694    0.45589    0.85970    1.000
    O47      O        0.66730    0.71920    0.21260    1.000
    O48      O        0.54508    0.64498    0.16042    1.000
    S49      S        0.89609    0.33562    0.59355    1.000
    S50      S        0.94546    0.62806    0.51404    1.000
    S51      S        0.61452    0.40672    0.06244    1.000
    C124     C        0.92280    0.19400    0.85220    1.000
    C125     C        0.01800    0.21100    0.01800    1.000
    C126     C        0.97620    0.50340    0.22680    1.000
    H172     H        0.87380    0.16550    0.88460    1.000
    H173     H        0.91480    0.17170    0.79500    1.000
    H174     H        0.96470    0.18920    0.88060    1.000
    H175     H        0.96530    0.19030    0.99390    1.000
    H176     H        0.04250    0.18200    0.99580    1.000
    H177     H        0.01390    0.20570    0.08010    1.000
    H178     H        0.01260    0.52260    0.17850    1.000
    H179     H        0.94040    0.52470    0.22340    1.000
    H180     H        0.00630    0.52080    0.27970    1.000
    S52      S        0.95050    0.29560    0.84530    1.000
    S53      S        0.07720    0.31330    0.99130    1.000
    S54      S        0.91780    0.39330    0.22440    1.000
    Eu7      Eu       0.33333    0.66667    0.40918    1.000
    O49      O        0.33333    0.66667    0.15790    1.000
    H181     H        0.33333    0.66667    0.09450    1.000
    Eu8      Eu       0.66667    0.33333    0.59082    1.000
    O50      O        0.66667    0.33333    0.84210    1.000
    H182     H        0.66667    0.33333    0.90550    1.000
