# CIF file generated by openbabel 3.1.0, see https://openbabel.org
data_I
_chemical_name_common 'image0'
_cell_length_a 16.419
_cell_length_b 17.088
_cell_length_c 12.113
_cell_angle_alpha 90
_cell_angle_beta 95.107
_cell_angle_gamma 90
_space_group_name_H-M_alt 'P 1'
_space_group_name_Hall 'P 1'
loop_
    _symmetry_equiv_pos_as_xyz
    x,y,z
loop_
    _atom_site_label
    _atom_site_type_symbol
    _atom_site_fract_x
    _atom_site_fract_y
    _atom_site_fract_z
    _atom_site_occupancy
    Co1      Co       0.38328    0.14570    0.06142    1.000
    N1       N        0.25270    0.14750    0.02930    1.000
    N2       N        0.14330    0.23190    0.96970    1.000
    N3       N        0.51100    0.16460    0.10400    1.000
    N4       N        0.60950    0.16480    0.25970    1.000
    N5       N        0.38690    0.02840    0.10650    1.000
    N6       N        0.40000    0.90370    0.20150    1.000
    N7       N        0.39790    0.87430    0.39800    1.000
    C1       C        0.21990    0.21520    0.99990    1.000
    H1       H        0.24280    0.24140    0.99870    1.000
    C2       C        0.20070    0.08720    0.02750    1.000
    H2       H        0.22030    0.03770    0.04750    1.000
    C3       C        0.11890    0.09700    0.99670    1.000
    H3       H        0.08280    0.05510    0.99580    1.000
    C4       C        0.09200    0.17110    0.96720    1.000
    H4       H        0.03690    0.17900    0.94500    1.000
    C5       C        0.53470    0.16480    0.21170    1.000
    H5       H        0.49160    0.16520    0.26040    1.000
    C6       C        0.66940    0.16360    0.19160    1.000
    H6       H        0.72360    0.16250    0.22120    1.000
    C7       C        0.65180    0.16410    0.07780    1.000
    H7       H        0.69340    0.16350    0.03050    1.000
    C8       C        0.57120    0.16550    0.03650    1.000
    H8       H        0.55820    0.16710    0.96020    1.000
    C9       C        0.39280    0.97180    0.15690    1.000
    C10      C        0.39700    0.89180    0.30640    1.000
    Co2      Co       0.88328    0.64570    0.06142    1.000
    N8       N        0.75270    0.64750    0.02930    1.000
    N9       N        0.64330    0.73190    0.96970    1.000
    N10      N        0.01100    0.66460    0.10400    1.000
    N11      N        0.10950    0.66480    0.25970    1.000
    N12      N        0.88690    0.52840    0.10650    1.000
    N13      N        0.90000    0.40370    0.20150    1.000
    N14      N        0.89790    0.37430    0.39800    1.000
    C11      C        0.71990    0.71520    0.99990    1.000
    H9       H        0.74280    0.74140    0.99870    1.000
    C12      C        0.70070    0.58720    0.02750    1.000
    H10      H        0.72030    0.53770    0.04750    1.000
    C13      C        0.61890    0.59700    0.99670    1.000
    H11      H        0.58280    0.55510    0.99580    1.000
    C14      C        0.59200    0.67110    0.96720    1.000
    H12      H        0.53690    0.67900    0.94500    1.000
    C15      C        0.03470    0.66480    0.21170    1.000
    H13      H        0.99160    0.66520    0.26040    1.000
    C16      C        0.16940    0.66360    0.19160    1.000
    H14      H        0.22360    0.66250    0.22120    1.000
    C17      C        0.15180    0.66410    0.07780    1.000
    H15      H        0.19340    0.66350    0.03050    1.000
    C18      C        0.07120    0.66550    0.03650    1.000
    H16      H        0.05820    0.66710    0.96020    1.000
    C19      C        0.89280    0.47180    0.15690    1.000
    C20      C        0.89700    0.39180    0.30640    1.000
    Co3      Co       0.61672    0.14570    0.43858    1.000
    N15      N        0.74730    0.14750    0.47070    1.000
    N16      N        0.85670    0.23190    0.53030    1.000
    N17      N        0.48900    0.16460    0.39600    1.000
    N18      N        0.39050    0.16480    0.24030    1.000
    N19      N        0.61310    0.02840    0.39350    1.000
    N20      N        0.60000    0.90370    0.29850    1.000
    N21      N        0.60210    0.87430    0.10200    1.000
    C21      C        0.78010    0.21520    0.50010    1.000
    H17      H        0.75720    0.24140    0.50130    1.000
    C22      C        0.79930    0.08720    0.47250    1.000
    H18      H        0.77970    0.03770    0.45250    1.000
    C23      C        0.88110    0.09700    0.50330    1.000
    H19      H        0.91720    0.05510    0.50420    1.000
    C24      C        0.90800    0.17110    0.53280    1.000
    H20      H        0.96310    0.17900    0.55500    1.000
    C25      C        0.46530    0.16480    0.28830    1.000
    H21      H        0.50840    0.16520    0.23960    1.000
    C26      C        0.33060    0.16360    0.30840    1.000
    H22      H        0.27640    0.16250    0.27880    1.000
    C27      C        0.34820    0.16410    0.42220    1.000
    H23      H        0.30660    0.16350    0.46950    1.000
    C28      C        0.42880    0.16550    0.46350    1.000
    H24      H        0.44180    0.16710    0.53980    1.000
    C29      C        0.60720    0.97180    0.34310    1.000
    C30      C        0.60300    0.89180    0.19360    1.000
    Co4      Co       0.11672    0.64570    0.43858    1.000
    N22      N        0.24730    0.64750    0.47070    1.000
    N23      N        0.35670    0.73190    0.53030    1.000
    N24      N        0.98900    0.66460    0.39600    1.000
    N25      N        0.89050    0.66480    0.24030    1.000
    N26      N        0.11310    0.52840    0.39350    1.000
    N27      N        0.10000    0.40370    0.29850    1.000
    N28      N        0.10210    0.37430    0.10200    1.000
    C31      C        0.28010    0.71520    0.50010    1.000
    H25      H        0.25720    0.74140    0.50130    1.000
    C32      C        0.29930    0.58720    0.47250    1.000
    H26      H        0.27970    0.53770    0.45250    1.000
    C33      C        0.38110    0.59700    0.50330    1.000
    H27      H        0.41720    0.55510    0.50420    1.000
    C34      C        0.40800    0.67110    0.53280    1.000
    H28      H        0.46310    0.67900    0.55500    1.000
    C35      C        0.96530    0.66480    0.28830    1.000
    H29      H        0.00840    0.66520    0.23960    1.000
    C36      C        0.83060    0.66360    0.30840    1.000
    H30      H        0.77640    0.66250    0.27880    1.000
    C37      C        0.84820    0.66410    0.42220    1.000
    H31      H        0.80660    0.66350    0.46950    1.000
    C38      C        0.92880    0.66550    0.46350    1.000
    H32      H        0.94180    0.66710    0.53980    1.000
    C39      C        0.10720    0.47180    0.34310    1.000
    C40      C        0.10300    0.39180    0.19360    1.000
    Co5      Co       0.61672    0.85430    0.93858    1.000
    N29      N        0.74730    0.85250    0.97070    1.000
    N30      N        0.85670    0.76810    0.03030    1.000
    N31      N        0.48900    0.83540    0.89600    1.000
    N32      N        0.39050    0.83520    0.74030    1.000
    N33      N        0.61310    0.97160    0.89350    1.000
    N34      N        0.60000    0.09630    0.79850    1.000
    N35      N        0.60210    0.12570    0.60200    1.000
    C41      C        0.78010    0.78480    0.00010    1.000
    H33      H        0.75720    0.75860    0.00130    1.000
    C42      C        0.79930    0.91280    0.97250    1.000
    H34      H        0.77970    0.96230    0.95250    1.000
    C43      C        0.88110    0.90300    0.00330    1.000
    H35      H        0.91720    0.94490    0.00420    1.000
    C44      C        0.90800    0.82890    0.03280    1.000
    H36      H        0.96310    0.82100    0.05500    1.000
    C45      C        0.46530    0.83520    0.78830    1.000
    H37      H        0.50840    0.83480    0.73960    1.000
    C46      C        0.33060    0.83640    0.80840    1.000
    H38      H        0.27640    0.83750    0.77880    1.000
    C47      C        0.34820    0.83590    0.92220    1.000
    H39      H        0.30660    0.83650    0.96950    1.000
    C48      C        0.42880    0.83450    0.96350    1.000
    H40      H        0.44180    0.83290    0.03980    1.000
    C49      C        0.60720    0.02820    0.84310    1.000
    C50      C        0.60300    0.10820    0.69360    1.000
    Co6      Co       0.11672    0.35430    0.93858    1.000
    N36      N        0.24730    0.35250    0.97070    1.000
    N37      N        0.35670    0.26810    0.03030    1.000
    N38      N        0.98900    0.33540    0.89600    1.000
    N39      N        0.89050    0.33520    0.74030    1.000
    N40      N        0.11310    0.47160    0.89350    1.000
    N41      N        0.10000    0.59630    0.79850    1.000
    N42      N        0.10210    0.62570    0.60200    1.000
    C51      C        0.28010    0.28480    0.00010    1.000
    H41      H        0.25720    0.25860    0.00130    1.000
    C52      C        0.29930    0.41280    0.97250    1.000
    H42      H        0.27970    0.46230    0.95250    1.000
    C53      C        0.38110    0.40300    0.00330    1.000
    H43      H        0.41720    0.44490    0.00420    1.000
    C54      C        0.40800    0.32890    0.03280    1.000
    H44      H        0.46310    0.32100    0.05500    1.000
    C55      C        0.96530    0.33520    0.78830    1.000
    H45      H        0.00840    0.33480    0.73960    1.000
    C56      C        0.83060    0.33640    0.80840    1.000
    H46      H        0.77640    0.33750    0.77880    1.000
    C57      C        0.84820    0.33590    0.92220    1.000
    H47      H        0.80660    0.33650    0.96950    1.000
    C58      C        0.92880    0.33450    0.96350    1.000
    H48      H        0.94180    0.33290    0.03980    1.000
    C59      C        0.10720    0.52820    0.84310    1.000
    C60      C        0.10300    0.60820    0.69360    1.000
    Co7      Co       0.38328    0.85430    0.56142    1.000
    N43      N        0.25270    0.85250    0.52930    1.000
    N44      N        0.14330    0.76810    0.46970    1.000
    N45      N        0.51100    0.83540    0.60400    1.000
    N46      N        0.60950    0.83520    0.75970    1.000
    N47      N        0.38690    0.97160    0.60650    1.000
    N48      N        0.40000    0.09630    0.70150    1.000
    N49      N        0.39790    0.12570    0.89800    1.000
    C61      C        0.21990    0.78480    0.49990    1.000
    H49      H        0.24280    0.75860    0.49870    1.000
    C62      C        0.20070    0.91280    0.52750    1.000
    H50      H        0.22030    0.96230    0.54750    1.000
    C63      C        0.11890    0.90300    0.49670    1.000
    H51      H        0.08280    0.94490    0.49580    1.000
    C64      C        0.09200    0.82890    0.46720    1.000
    H52      H        0.03690    0.82100    0.44500    1.000
    C65      C        0.53470    0.83520    0.71170    1.000
    H53      H        0.49160    0.83480    0.76040    1.000
    C66      C        0.66940    0.83640    0.69160    1.000
    H54      H        0.72360    0.83750    0.72120    1.000
    C67      C        0.65180    0.83590    0.57780    1.000
    H55      H        0.69340    0.83650    0.53050    1.000
    C68      C        0.57120    0.83450    0.53650    1.000
    H56      H        0.55820    0.83290    0.46020    1.000
    C69      C        0.39280    0.02820    0.65690    1.000
    C70      C        0.39700    0.10820    0.80640    1.000
    Co8      Co       0.88328    0.35430    0.56142    1.000
    N50      N        0.75270    0.35250    0.52930    1.000
    N51      N        0.64330    0.26810    0.46970    1.000
    N52      N        0.01100    0.33540    0.60400    1.000
    N53      N        0.10950    0.33520    0.75970    1.000
    N54      N        0.88690    0.47160    0.60650    1.000
    N55      N        0.90000    0.59630    0.70150    1.000
    N56      N        0.89790    0.62570    0.89800    1.000
    C71      C        0.71990    0.28480    0.49990    1.000
    H57      H        0.74280    0.25860    0.49870    1.000
    C72      C        0.70070    0.41280    0.52750    1.000
    H58      H        0.72030    0.46230    0.54750    1.000
    C73      C        0.61890    0.40300    0.49670    1.000
    H59      H        0.58280    0.44490    0.49580    1.000
    C74      C        0.59200    0.32890    0.46720    1.000
    H60      H        0.53690    0.32100    0.44500    1.000
    C75      C        0.03470    0.33520    0.71170    1.000
    H61      H        0.99160    0.33480    0.76040    1.000
    C76      C        0.16940    0.33640    0.69160    1.000
    H62      H        0.22360    0.33750    0.72120    1.000
    C77      C        0.15180    0.33590    0.57780    1.000
    H63      H        0.19340    0.33650    0.53050    1.000
    C78      C        0.07120    0.33450    0.53650    1.000
    H64      H        0.05820    0.33290    0.46020    1.000
    C79      C        0.89280    0.52820    0.65690    1.000
    C80      C        0.89700    0.60820    0.80640    1.000
