# CIF file generated by openbabel 3.1.0, see https://openbabel.org
data_I
_chemical_name_common 'image0'
_cell_length_a 16.8944
_cell_length_b 16.8944
_cell_length_c 7.5454
_cell_angle_alpha 90
_cell_angle_beta 90
_cell_angle_gamma 90
_space_group_name_H-M_alt 'P 1'
_space_group_name_Hall 'P 1'
loop_
    _symmetry_equiv_pos_as_xyz
    x,y,z
loop_
    _atom_site_label
    _atom_site_type_symbol
    _atom_site_fract_x
    _atom_site_fract_y
    _atom_site_fract_z
    _atom_site_occupancy
    O1       O        0.53630    0.38080    0.01650    1.000
    N1       N        0.42360    0.31350    0.07450    1.000
    H1       H        0.39810    0.35500    0.04110    1.000
    C1       C        0.50670    0.31740    0.07220    1.000
    O2       O        0.03630    0.88080    0.51650    1.000
    N2       N        0.92360    0.81350    0.57450    1.000
    H2       H        0.89810    0.85500    0.54110    1.000
    C2       C        0.00670    0.81740    0.57220    1.000
    O3       O        0.46370    0.61920    0.01650    1.000
    N3       N        0.57640    0.68650    0.07450    1.000
    H3       H        0.60190    0.64500    0.04110    1.000
    C3       C        0.49330    0.68260    0.07220    1.000
    O4       O        0.96370    0.11920    0.51650    1.000
    N4       N        0.07640    0.18650    0.57450    1.000
    H4       H        0.10190    0.14500    0.54110    1.000
    C4       C        0.99330    0.18260    0.57220    1.000
    O5       O        0.38080    0.46370    0.98350    1.000
    N5       N        0.31350    0.57640    0.92550    1.000
    H5       H        0.35500    0.60190    0.95890    1.000
    C5       C        0.31740    0.49330    0.92780    1.000
    O6       O        0.88080    0.96370    0.48350    1.000
    N6       N        0.81350    0.07640    0.42550    1.000
    H6       H        0.85500    0.10190    0.45890    1.000
    C6       C        0.81740    0.99330    0.42780    1.000
    O7       O        0.61920    0.53630    0.98350    1.000
    N7       N        0.68650    0.42360    0.92550    1.000
    H7       H        0.64500    0.39810    0.95890    1.000
    C7       C        0.68260    0.50670    0.92780    1.000
    O8       O        0.11920    0.03630    0.48350    1.000
    N8       N        0.18650    0.92360    0.42550    1.000
    H8       H        0.14500    0.89810    0.45890    1.000
    C8       C        0.18260    0.00670    0.42780    1.000
    O9       O        0.96370    0.38080    0.73350    1.000
    N9       N        0.07640    0.31350    0.67550    1.000
    H9       H        0.10190    0.35500    0.70890    1.000
    C9       C        0.99330    0.31740    0.67780    1.000
    O10      O        0.46370    0.88080    0.23350    1.000
    N10      N        0.57640    0.81350    0.17550    1.000
    H10      H        0.60190    0.85500    0.20890    1.000
    C10      C        0.49330    0.81740    0.17780    1.000
    O11      O        0.03630    0.61920    0.73350    1.000
    N11      N        0.92360    0.68650    0.67550    1.000
    H11      H        0.89810    0.64500    0.70890    1.000
    C11      C        0.00670    0.68260    0.67780    1.000
    O12      O        0.53630    0.11920    0.23350    1.000
    N12      N        0.42360    0.18650    0.17550    1.000
    H12      H        0.39810    0.14500    0.20890    1.000
    C12      C        0.50670    0.18260    0.17780    1.000
    O13      O        0.11920    0.46370    0.76650    1.000
    N13      N        0.18650    0.57640    0.82450    1.000
    H13      H        0.14500    0.60190    0.79110    1.000
    C13      C        0.18260    0.49330    0.82220    1.000
    O14      O        0.61920    0.96370    0.26650    1.000
    N14      N        0.68650    0.07640    0.32450    1.000
    H14      H        0.64500    0.10190    0.29110    1.000
    C14      C        0.68260    0.99330    0.32220    1.000
    O15      O        0.88080    0.53630    0.76650    1.000
    N15      N        0.81350    0.42360    0.82450    1.000
    H15      H        0.85500    0.39810    0.79110    1.000
    C15      C        0.81740    0.50670    0.82220    1.000
    O16      O        0.38080    0.03630    0.26650    1.000
    N16      N        0.31350    0.92360    0.32450    1.000
    H16      H        0.35500    0.89810    0.29110    1.000
    C16      C        0.31740    0.00670    0.32220    1.000
    Ni1      Ni       0.50000    0.50000    0.00000    1.000
    Ni2      Ni       0.00000    0.00000    0.50000    1.000
    Ni3      Ni       0.00000    0.50000    0.75000    1.000
    Ni4      Ni       0.50000    0.00000    0.25000    1.000
    S1       S        0.28287    0.25000    0.12500    1.000
    C17      C        0.38010    0.25000    0.12500    1.000
    C18      C        0.54750    0.25000    0.12500    1.000
    H17      H        0.60260    0.25000    0.12500    1.000
    S2       S        0.71713    0.75000    0.12500    1.000
    C19      C        0.61990    0.75000    0.12500    1.000
    C20      C        0.45250    0.75000    0.12500    1.000
    H18      H        0.39740    0.75000    0.12500    1.000
    S3       S        0.21713    0.25000    0.62500    1.000
    C21      C        0.11990    0.25000    0.62500    1.000
    C22      C        0.95250    0.25000    0.62500    1.000
    H19      H        0.89740    0.25000    0.62500    1.000
    S4       S        0.25000    0.71713    0.87500    1.000
    C23      C        0.25000    0.61990    0.87500    1.000
    C24      C        0.25000    0.45250    0.87500    1.000
    H20      H        0.25000    0.39740    0.87500    1.000
    S5       S        0.75000    0.21713    0.37500    1.000
    C25      C        0.75000    0.11990    0.37500    1.000
    C26      C        0.75000    0.95250    0.37500    1.000
    H21      H        0.75000    0.89740    0.37500    1.000
    S6       S        0.75000    0.28287    0.87500    1.000
    C27      C        0.75000    0.38010    0.87500    1.000
    C28      C        0.75000    0.54750    0.87500    1.000
    H22      H        0.75000    0.60260    0.87500    1.000
    S7       S        0.25000    0.78287    0.37500    1.000
    C29      C        0.25000    0.88010    0.37500    1.000
    C30      C        0.25000    0.04750    0.37500    1.000
    H23      H        0.25000    0.10260    0.37500    1.000
    S8       S        0.78287    0.75000    0.62500    1.000
    C31      C        0.88010    0.75000    0.62500    1.000
    C32      C        0.04750    0.75000    0.62500    1.000
    H24      H        0.10260    0.75000    0.62500    1.000
