# CIF file generated by openbabel 3.1.0, see https://openbabel.org
data_I
_chemical_name_common 'image0'
_cell_length_a 34.1668
_cell_length_b 34.1668
_cell_length_c 19.3425
_cell_angle_alpha 90
_cell_angle_beta 90
_cell_angle_gamma 90
_space_group_name_H-M_alt 'P 1'
_space_group_name_Hall 'P 1'
loop_
    _symmetry_equiv_pos_as_xyz
    x,y,z
loop_
    _atom_site_label
    _atom_site_type_symbol
    _atom_site_fract_x
    _atom_site_fract_y
    _atom_site_fract_z
    _atom_site_occupancy
    Cu1      Cu       0.24755    0.24618    0.81631    1.000
    O1       O        0.27576    0.19798    0.80370    1.000
    O2       O        0.53306    0.45959    0.92620    1.000
    O3       O        0.45863    0.03549    0.56830    1.000
    O4       O        0.30309    0.28098    0.69820    1.000
    O5       O        0.27930    0.20243    0.68690    1.000
    O6       O        0.29839    0.27229    0.81370    1.000
    C1       C        0.46420    0.36130    0.80380    1.000
    C2       C        0.31420    0.28440    0.75790    1.000
    C3       C        0.39650    0.03520    0.65710    1.000
    H1       H        0.40990    0.05820    0.64710    1.000
    C4       C        0.34030    0.07610    0.71260    1.000
    C5       C        0.36020    0.03490    0.69420    1.000
    C6       C        0.28550    0.18510    0.74440    1.000
    C7       C        0.40450    0.32910    0.84620    1.000
    H2       H        0.41410    0.33260    0.89070    1.000
    C8       C        0.33090    0.09640    0.65810    1.000
    H3       H        0.33500    0.08640    0.61400    1.000
    H4       H        0.47630    0.30000    0.73290    1.000
    C9       C        0.42490    0.34010    0.79290    1.000
    C10      C        0.46590    0.39470    0.84490    1.000
    H5       H        0.44280    0.40680    0.85850    1.000
    C11      C        0.31360    0.13540    0.66750    1.000
    H6       H        0.30920    0.15210    0.63020    1.000
    C12      C        0.30450    0.14600    0.73300    1.000
    C13      C        0.33040    0.08680    0.77530    1.000
    H7       H        0.33400    0.07000    0.81260    1.000
    C14      C        0.31330    0.12680    0.78560    1.000
    H8       H        0.30940    0.13700    0.82970    1.000
    C15      C        0.36660    0.31140    0.83510    1.000
    H9       H        0.35090    0.30470    0.87260    1.000
    C16      C        0.35380    0.30460    0.76800    1.000
    C17      C        0.41240    0.33420    0.72490    1.000
    H10      H        0.42800    0.34220    0.68820    1.000
    C18      C        0.37380    0.31490    0.71100    1.000
    H11      H        0.36440    0.31050    0.66650    1.000
    N1       N        0.24650    0.24400    0.92780    1.000
    C19      C        0.25810    0.21220    0.95776    1.000
    H12      H        0.26610    0.19050    0.93250    1.000
    C20      C        0.22310    0.26230    0.96000    1.000
    H13      H        0.20440    0.27690    0.93650    1.000
    H14      H        0.29960    0.97800    0.77700    1.000
    O7       O        0.51210    0.10250    0.47970    1.000
    Cu2      Cu       0.74755    0.74618    0.31631    1.000
    O8       O        0.77576    0.69798    0.30370    1.000
    O9       O        0.03306    0.95959    0.42620    1.000
    O10      O        0.95863    0.53549    0.06830    1.000
    O11      O        0.80309    0.78098    0.19820    1.000
    O12      O        0.77930    0.70243    0.18690    1.000
    O13      O        0.79839    0.77229    0.31370    1.000
    C21      C        0.96420    0.86130    0.30380    1.000
    C22      C        0.81420    0.78440    0.25790    1.000
    C23      C        0.89650    0.53520    0.15710    1.000
    H15      H        0.90990    0.55820    0.14710    1.000
    C24      C        0.84030    0.57610    0.21260    1.000
    C25      C        0.86020    0.53490    0.19420    1.000
    C26      C        0.78550    0.68510    0.24440    1.000
    C27      C        0.90450    0.82910    0.34620    1.000
    H16      H        0.91410    0.83260    0.39070    1.000
    C28      C        0.83090    0.59640    0.15810    1.000
    H17      H        0.83500    0.58640    0.11400    1.000
    H18      H        0.97630    0.80000    0.23290    1.000
    C29      C        0.92490    0.84010    0.29290    1.000
    C30      C        0.96590    0.89470    0.34490    1.000
    H19      H        0.94280    0.90680    0.35850    1.000
    C31      C        0.81360    0.63540    0.16750    1.000
    H20      H        0.80920    0.65210    0.13020    1.000
    C32      C        0.80450    0.64600    0.23300    1.000
    C33      C        0.83040    0.58680    0.27530    1.000
    H21      H        0.83400    0.57000    0.31260    1.000
    C34      C        0.81330    0.62680    0.28560    1.000
    H22      H        0.80940    0.63700    0.32970    1.000
    C35      C        0.86660    0.81140    0.33510    1.000
    H23      H        0.85090    0.80470    0.37260    1.000
    C36      C        0.85380    0.80460    0.26800    1.000
    C37      C        0.91240    0.83420    0.22490    1.000
    H24      H        0.92800    0.84220    0.18820    1.000
    C38      C        0.87380    0.81490    0.21100    1.000
    H25      H        0.86440    0.81050    0.16650    1.000
    N2       N        0.74650    0.74400    0.42780    1.000
    C39      C        0.75810    0.71220    0.45776    1.000
    H26      H        0.76610    0.69050    0.43250    1.000
    C40      C        0.72310    0.76230    0.46000    1.000
    H27      H        0.70440    0.77690    0.43650    1.000
    H28      H        0.79960    0.47800    0.27700    1.000
    O14      O        0.01210    0.60250    0.97970    1.000
    Cu3      Cu       0.75245    0.75382    0.81631    1.000
    O15      O        0.72424    0.80202    0.80370    1.000
    O16      O        0.46694    0.54041    0.92620    1.000
    O17      O        0.54137    0.96451    0.56830    1.000
    O18      O        0.69691    0.71902    0.69820    1.000
    O19      O        0.72070    0.79757    0.68690    1.000
    O20      O        0.70161    0.72771    0.81370    1.000
    C41      C        0.53580    0.63870    0.80380    1.000
    C42      C        0.68580    0.71560    0.75790    1.000
    C43      C        0.60350    0.96480    0.65710    1.000
    H29      H        0.59010    0.94180    0.64710    1.000
    C44      C        0.65970    0.92390    0.71260    1.000
    C45      C        0.63980    0.96510    0.69420    1.000
    C46      C        0.71450    0.81490    0.74440    1.000
    C47      C        0.59550    0.67090    0.84620    1.000
    H30      H        0.58590    0.66740    0.89070    1.000
    C48      C        0.66910    0.90360    0.65810    1.000
    H31      H        0.66500    0.91360    0.61400    1.000
    H32      H        0.52370    0.70000    0.73290    1.000
    C49      C        0.57510    0.65990    0.79290    1.000
    C50      C        0.53410    0.60530    0.84490    1.000
    H33      H        0.55720    0.59320    0.85850    1.000
    C51      C        0.68640    0.86460    0.66750    1.000
    H34      H        0.69080    0.84790    0.63020    1.000
    C52      C        0.69550    0.85400    0.73300    1.000
    C53      C        0.66960    0.91320    0.77530    1.000
    H35      H        0.66600    0.93000    0.81260    1.000
    C54      C        0.68670    0.87320    0.78560    1.000
    H36      H        0.69060    0.86300    0.82970    1.000
    C55      C        0.63340    0.68860    0.83510    1.000
    H37      H        0.64910    0.69530    0.87260    1.000
    C56      C        0.64620    0.69540    0.76800    1.000
    C57      C        0.58760    0.66580    0.72490    1.000
    H38      H        0.57200    0.65780    0.68820    1.000
    C58      C        0.62620    0.68510    0.71100    1.000
    H39      H        0.63560    0.68950    0.66650    1.000
    N3       N        0.75350    0.75600    0.92780    1.000
    C59      C        0.74190    0.78780    0.95776    1.000
    H40      H        0.73390    0.80950    0.93250    1.000
    C60      C        0.77690    0.73770    0.96000    1.000
    H41      H        0.79560    0.72310    0.93650    1.000
    H42      H        0.70040    0.02200    0.77700    1.000
    O21      O        0.48790    0.89750    0.47970    1.000
    Cu4      Cu       0.25245    0.25382    0.31631    1.000
    O22      O        0.22424    0.30202    0.30370    1.000
    O23      O        0.96694    0.04041    0.42620    1.000
    O24      O        0.04137    0.46451    0.06830    1.000
    O25      O        0.19691    0.21902    0.19820    1.000
    O26      O        0.22070    0.29757    0.18690    1.000
    O27      O        0.20161    0.22771    0.31370    1.000
    C61      C        0.03580    0.13870    0.30380    1.000
    C62      C        0.18580    0.21560    0.25790    1.000
    C63      C        0.10350    0.46480    0.15710    1.000
    H43      H        0.09010    0.44180    0.14710    1.000
    C64      C        0.15970    0.42390    0.21260    1.000
    C65      C        0.13980    0.46510    0.19420    1.000
    C66      C        0.21450    0.31490    0.24440    1.000
    C67      C        0.09550    0.17090    0.34620    1.000
    H44      H        0.08590    0.16740    0.39070    1.000
    C68      C        0.16910    0.40360    0.15810    1.000
    H45      H        0.16500    0.41360    0.11400    1.000
    H46      H        0.02370    0.20000    0.23290    1.000
    C69      C        0.07510    0.15990    0.29290    1.000
    C70      C        0.03410    0.10530    0.34490    1.000
    H47      H        0.05720    0.09320    0.35850    1.000
    C71      C        0.18640    0.36460    0.16750    1.000
    H48      H        0.19080    0.34790    0.13020    1.000
    C72      C        0.19550    0.35400    0.23300    1.000
    C73      C        0.16960    0.41320    0.27530    1.000
    H49      H        0.16600    0.43000    0.31260    1.000
    C74      C        0.18670    0.37320    0.28560    1.000
    H50      H        0.19060    0.36300    0.32970    1.000
    C75      C        0.13340    0.18860    0.33510    1.000
    H51      H        0.14910    0.19530    0.37260    1.000
    C76      C        0.14620    0.19540    0.26800    1.000
    C77      C        0.08760    0.16580    0.22490    1.000
    H52      H        0.07200    0.15780    0.18820    1.000
    C78      C        0.12620    0.18510    0.21100    1.000
    H53      H        0.13560    0.18950    0.16650    1.000
    N4       N        0.25350    0.25600    0.42780    1.000
    C79      C        0.24190    0.28780    0.45776    1.000
    H54      H        0.23390    0.30950    0.43250    1.000
    C80      C        0.27690    0.23770    0.46000    1.000
    H55      H        0.29560    0.22310    0.43650    1.000
    H56      H        0.20040    0.52200    0.27700    1.000
    O28      O        0.98790    0.39750    0.97970    1.000
    Cu5      Cu       0.75245    0.24618    0.18369    1.000
    O29      O        0.72424    0.19798    0.19630    1.000
    O30      O        0.46694    0.45959    0.07380    1.000
    O31      O        0.54137    0.03549    0.43170    1.000
    O32      O        0.69691    0.28098    0.30180    1.000
    O33      O        0.72070    0.20243    0.31310    1.000
    O34      O        0.70161    0.27229    0.18630    1.000
    C81      C        0.53580    0.36130    0.19620    1.000
    C82      C        0.68580    0.28440    0.24210    1.000
    C83      C        0.60350    0.03520    0.34290    1.000
    H57      H        0.59010    0.05820    0.35290    1.000
    C84      C        0.65970    0.07610    0.28740    1.000
    C85      C        0.63980    0.03490    0.30580    1.000
    C86      C        0.71450    0.18510    0.25560    1.000
    C87      C        0.59550    0.32910    0.15380    1.000
    H58      H        0.58590    0.33260    0.10930    1.000
    C88      C        0.66910    0.09640    0.34190    1.000
    H59      H        0.66500    0.08640    0.38600    1.000
    H60      H        0.52370    0.30000    0.26710    1.000
    C89      C        0.57510    0.34010    0.20710    1.000
    C90      C        0.53410    0.39470    0.15510    1.000
    H61      H        0.55720    0.40680    0.14150    1.000
    C91      C        0.68640    0.13540    0.33250    1.000
    H62      H        0.69080    0.15210    0.36980    1.000
    C92      C        0.69550    0.14600    0.26700    1.000
    C93      C        0.66960    0.08680    0.22470    1.000
    H63      H        0.66600    0.07000    0.18740    1.000
    C94      C        0.68670    0.12680    0.21440    1.000
    H64      H        0.69060    0.13700    0.17030    1.000
    C95      C        0.63340    0.31140    0.16490    1.000
    H65      H        0.64910    0.30470    0.12740    1.000
    C96      C        0.64620    0.30460    0.23200    1.000
    C97      C        0.58760    0.33420    0.27510    1.000
    H66      H        0.57200    0.34220    0.31180    1.000
    C98      C        0.62620    0.31490    0.28900    1.000
    H67      H        0.63560    0.31050    0.33350    1.000
    N5       N        0.75350    0.24400    0.07220    1.000
    C99      C        0.74190    0.21220    0.04224    1.000
    H68      H        0.73390    0.19050    0.06750    1.000
    C100     C        0.77690    0.26230    0.04000    1.000
    H69      H        0.79560    0.27690    0.06350    1.000
    H70      H        0.70040    0.97800    0.22300    1.000
    O35      O        0.48790    0.10250    0.52030    1.000
    Cu6      Cu       0.25245    0.74618    0.68369    1.000
    O36      O        0.22424    0.69798    0.69630    1.000
    O37      O        0.96694    0.95959    0.57380    1.000
    O38      O        0.04137    0.53549    0.93170    1.000
    O39      O        0.19691    0.78098    0.80180    1.000
    O40      O        0.22070    0.70243    0.81310    1.000
    O41      O        0.20161    0.77229    0.68630    1.000
    C101     C        0.03580    0.86130    0.69620    1.000
    C102     C        0.18580    0.78440    0.74210    1.000
    C103     C        0.10350    0.53520    0.84290    1.000
    H71      H        0.09010    0.55820    0.85290    1.000
    C104     C        0.15970    0.57610    0.78740    1.000
    C105     C        0.13980    0.53490    0.80580    1.000
    C106     C        0.21450    0.68510    0.75560    1.000
    C107     C        0.09550    0.82910    0.65380    1.000
    H72      H        0.08590    0.83260    0.60930    1.000
    C108     C        0.16910    0.59640    0.84190    1.000
    H73      H        0.16500    0.58640    0.88600    1.000
    H74      H        0.02370    0.80000    0.76710    1.000
    C109     C        0.07510    0.84010    0.70710    1.000
    C110     C        0.03410    0.89470    0.65510    1.000
    H75      H        0.05720    0.90680    0.64150    1.000
    C111     C        0.18640    0.63540    0.83250    1.000
    H76      H        0.19080    0.65210    0.86980    1.000
    C112     C        0.19550    0.64600    0.76700    1.000
    C113     C        0.16960    0.58680    0.72470    1.000
    H77      H        0.16600    0.57000    0.68740    1.000
    C114     C        0.18670    0.62680    0.71440    1.000
    H78      H        0.19060    0.63700    0.67030    1.000
    C115     C        0.13340    0.81140    0.66490    1.000
    H79      H        0.14910    0.80470    0.62740    1.000
    C116     C        0.14620    0.80460    0.73200    1.000
    C117     C        0.08760    0.83420    0.77510    1.000
    H80      H        0.07200    0.84220    0.81180    1.000
    C118     C        0.12620    0.81490    0.78900    1.000
    H81      H        0.13560    0.81050    0.83350    1.000
    N6       N        0.25350    0.74400    0.57220    1.000
    C119     C        0.24190    0.71220    0.54224    1.000
    H82      H        0.23390    0.69050    0.56750    1.000
    C120     C        0.27690    0.76230    0.54000    1.000
    H83      H        0.29560    0.77690    0.56350    1.000
    H84      H        0.20040    0.47800    0.72300    1.000
    O42      O        0.98790    0.60250    0.02030    1.000
    Cu7      Cu       0.24755    0.75382    0.18369    1.000
    O43      O        0.27576    0.80202    0.19630    1.000
    O44      O        0.53306    0.54041    0.07380    1.000
    O45      O        0.45863    0.96451    0.43170    1.000
    O46      O        0.30309    0.71902    0.30180    1.000
    O47      O        0.27930    0.79757    0.31310    1.000
    O48      O        0.29839    0.72771    0.18630    1.000
    C121     C        0.46420    0.63870    0.19620    1.000
    C122     C        0.31420    0.71560    0.24210    1.000
    C123     C        0.39650    0.96480    0.34290    1.000
    H85      H        0.40990    0.94180    0.35290    1.000
    C124     C        0.34030    0.92390    0.28740    1.000
    C125     C        0.36020    0.96510    0.30580    1.000
    C126     C        0.28550    0.81490    0.25560    1.000
    C127     C        0.40450    0.67090    0.15380    1.000
    H86      H        0.41410    0.66740    0.10930    1.000
    C128     C        0.33090    0.90360    0.34190    1.000
    H87      H        0.33500    0.91360    0.38600    1.000
    H88      H        0.47630    0.70000    0.26710    1.000
    C129     C        0.42490    0.65990    0.20710    1.000
    C130     C        0.46590    0.60530    0.15510    1.000
    H89      H        0.44280    0.59320    0.14150    1.000
    C131     C        0.31360    0.86460    0.33250    1.000
    H90      H        0.30920    0.84790    0.36980    1.000
    C132     C        0.30450    0.85400    0.26700    1.000
    C133     C        0.33040    0.91320    0.22470    1.000
    H91      H        0.33400    0.93000    0.18740    1.000
    C134     C        0.31330    0.87320    0.21440    1.000
    H92      H        0.30940    0.86300    0.17030    1.000
    C135     C        0.36660    0.68860    0.16490    1.000
    H93      H        0.35090    0.69530    0.12740    1.000
    C136     C        0.35380    0.69540    0.23200    1.000
    C137     C        0.41240    0.66580    0.27510    1.000
    H94      H        0.42800    0.65780    0.31180    1.000
    C138     C        0.37380    0.68510    0.28900    1.000
    H95      H        0.36440    0.68950    0.33350    1.000
    N7       N        0.24650    0.75600    0.07220    1.000
    C139     C        0.25810    0.78780    0.04224    1.000
    H96      H        0.26610    0.80950    0.06750    1.000
    C140     C        0.22310    0.73770    0.04000    1.000
    H97      H        0.20440    0.72310    0.06350    1.000
    H98      H        0.29960    0.02200    0.22300    1.000
    O49      O        0.51210    0.89750    0.52030    1.000
    Cu8      Cu       0.74755    0.25382    0.68369    1.000
    O50      O        0.77576    0.30202    0.69630    1.000
    O51      O        0.03306    0.04041    0.57380    1.000
    O52      O        0.95863    0.46451    0.93170    1.000
    O53      O        0.80309    0.21902    0.80180    1.000
    O54      O        0.77930    0.29757    0.81310    1.000
    O55      O        0.79839    0.22771    0.68630    1.000
    C141     C        0.96420    0.13870    0.69620    1.000
    C142     C        0.81420    0.21560    0.74210    1.000
    C143     C        0.89650    0.46480    0.84290    1.000
    H99      H        0.90990    0.44180    0.85290    1.000
    C144     C        0.84030    0.42390    0.78740    1.000
    C145     C        0.86020    0.46510    0.80580    1.000
    C146     C        0.78550    0.31490    0.75560    1.000
    C147     C        0.90450    0.17090    0.65380    1.000
    H100     H        0.91410    0.16740    0.60930    1.000
    C148     C        0.83090    0.40360    0.84190    1.000
    H101     H        0.83500    0.41360    0.88600    1.000
    H102     H        0.97630    0.20000    0.76710    1.000
    C149     C        0.92490    0.15990    0.70710    1.000
    C150     C        0.96590    0.10530    0.65510    1.000
    H103     H        0.94280    0.09320    0.64150    1.000
    C151     C        0.81360    0.36460    0.83250    1.000
    H104     H        0.80920    0.34790    0.86980    1.000
    C152     C        0.80450    0.35400    0.76700    1.000
    C153     C        0.83040    0.41320    0.72470    1.000
    H105     H        0.83400    0.43000    0.68740    1.000
    C154     C        0.81330    0.37320    0.71440    1.000
    H106     H        0.80940    0.36300    0.67030    1.000
    C155     C        0.86660    0.18860    0.66490    1.000
    H107     H        0.85090    0.19530    0.62740    1.000
    C156     C        0.85380    0.19540    0.73200    1.000
    C157     C        0.91240    0.16580    0.77510    1.000
    H108     H        0.92800    0.15780    0.81180    1.000
    C158     C        0.87380    0.18510    0.78900    1.000
    H109     H        0.86440    0.18950    0.83350    1.000
    N8       N        0.74650    0.25600    0.57220    1.000
    C159     C        0.75810    0.28780    0.54224    1.000
    H110     H        0.76610    0.30950    0.56750    1.000
    C160     C        0.72310    0.23770    0.54000    1.000
    H111     H        0.70440    0.22310    0.56350    1.000
    H112     H        0.79960    0.52200    0.72300    1.000
    O56      O        0.01210    0.39750    0.02030    1.000
    Cu9      Cu       0.75245    0.75382    0.18369    1.000
    O57      O        0.72424    0.80202    0.19630    1.000
    O58      O        0.46694    0.54041    0.07380    1.000
    O59      O        0.54137    0.96451    0.43170    1.000
    O60      O        0.69691    0.71902    0.30180    1.000
    O61      O        0.72070    0.79757    0.31310    1.000
    O62      O        0.70161    0.72771    0.18630    1.000
    C161     C        0.53580    0.63870    0.19620    1.000
    C162     C        0.68580    0.71560    0.24210    1.000
    C163     C        0.60350    0.96480    0.34290    1.000
    H113     H        0.59010    0.94180    0.35290    1.000
    C164     C        0.65970    0.92390    0.28740    1.000
    C165     C        0.63980    0.96510    0.30580    1.000
    C166     C        0.71450    0.81490    0.25560    1.000
    C167     C        0.59550    0.67090    0.15380    1.000
    H114     H        0.58590    0.66740    0.10930    1.000
    C168     C        0.66910    0.90360    0.34190    1.000
    H115     H        0.66500    0.91360    0.38600    1.000
    H116     H        0.52370    0.70000    0.26710    1.000
    C169     C        0.57510    0.65990    0.20710    1.000
    C170     C        0.53410    0.60530    0.15510    1.000
    H117     H        0.55720    0.59320    0.14150    1.000
    C171     C        0.68640    0.86460    0.33250    1.000
    H118     H        0.69080    0.84790    0.36980    1.000
    C172     C        0.69550    0.85400    0.26700    1.000
    C173     C        0.66960    0.91320    0.22470    1.000
    H119     H        0.66600    0.93000    0.18740    1.000
    C174     C        0.68670    0.87320    0.21440    1.000
    H120     H        0.69060    0.86300    0.17030    1.000
    C175     C        0.63340    0.68860    0.16490    1.000
    H121     H        0.64910    0.69530    0.12740    1.000
    C176     C        0.64620    0.69540    0.23200    1.000
    C177     C        0.58760    0.66580    0.27510    1.000
    H122     H        0.57200    0.65780    0.31180    1.000
    C178     C        0.62620    0.68510    0.28900    1.000
    H123     H        0.63560    0.68950    0.33350    1.000
    N9       N        0.75350    0.75600    0.07220    1.000
    C179     C        0.74190    0.78780    0.04224    1.000
    H124     H        0.73390    0.80950    0.06750    1.000
    C180     C        0.77690    0.73770    0.04000    1.000
    H125     H        0.79560    0.72310    0.06350    1.000
    H126     H        0.70040    0.02200    0.22300    1.000
    O63      O        0.48790    0.89750    0.52030    1.000
    Cu10     Cu       0.25245    0.25382    0.68369    1.000
    O64      O        0.22424    0.30202    0.69630    1.000
    O65      O        0.96694    0.04041    0.57380    1.000
    O66      O        0.04137    0.46451    0.93170    1.000
    O67      O        0.19691    0.21902    0.80180    1.000
    O68      O        0.22070    0.29757    0.81310    1.000
    O69      O        0.20161    0.22771    0.68630    1.000
    C181     C        0.03580    0.13870    0.69620    1.000
    C182     C        0.18580    0.21560    0.74210    1.000
    C183     C        0.10350    0.46480    0.84290    1.000
    H127     H        0.09010    0.44180    0.85290    1.000
    C184     C        0.15970    0.42390    0.78740    1.000
    C185     C        0.13980    0.46510    0.80580    1.000
    C186     C        0.21450    0.31490    0.75560    1.000
    C187     C        0.09550    0.17090    0.65380    1.000
    H128     H        0.08590    0.16740    0.60930    1.000
    C188     C        0.16910    0.40360    0.84190    1.000
    H129     H        0.16500    0.41360    0.88600    1.000
    H130     H        0.02370    0.20000    0.76710    1.000
    C189     C        0.07510    0.15990    0.70710    1.000
    C190     C        0.03410    0.10530    0.65510    1.000
    H131     H        0.05720    0.09320    0.64150    1.000
    C191     C        0.18640    0.36460    0.83250    1.000
    H132     H        0.19080    0.34790    0.86980    1.000
    C192     C        0.19550    0.35400    0.76700    1.000
    C193     C        0.16960    0.41320    0.72470    1.000
    H133     H        0.16600    0.43000    0.68740    1.000
    C194     C        0.18670    0.37320    0.71440    1.000
    H134     H        0.19060    0.36300    0.67030    1.000
    C195     C        0.13340    0.18860    0.66490    1.000
    H135     H        0.14910    0.19530    0.62740    1.000
    C196     C        0.14620    0.19540    0.73200    1.000
    C197     C        0.08760    0.16580    0.77510    1.000
    H136     H        0.07200    0.15780    0.81180    1.000
    C198     C        0.12620    0.18510    0.78900    1.000
    H137     H        0.13560    0.18950    0.83350    1.000
    N10      N        0.25350    0.25600    0.57220    1.000
    C199     C        0.24190    0.28780    0.54224    1.000
    H138     H        0.23390    0.30950    0.56750    1.000
    C200     C        0.27690    0.23770    0.54000    1.000
    H139     H        0.29560    0.22310    0.56350    1.000
    H140     H        0.20040    0.52200    0.72300    1.000
    O70      O        0.98790    0.39750    0.02030    1.000
    Cu11     Cu       0.24755    0.24618    0.18369    1.000
    O71      O        0.27576    0.19798    0.19630    1.000
    O72      O        0.53306    0.45959    0.07380    1.000
    O73      O        0.45863    0.03549    0.43170    1.000
    O74      O        0.30309    0.28098    0.30180    1.000
    O75      O        0.27930    0.20243    0.31310    1.000
    O76      O        0.29839    0.27229    0.18630    1.000
    C201     C        0.46420    0.36130    0.19620    1.000
    C202     C        0.31420    0.28440    0.24210    1.000
    C203     C        0.39650    0.03520    0.34290    1.000
    H141     H        0.40990    0.05820    0.35290    1.000
    C204     C        0.34030    0.07610    0.28740    1.000
    C205     C        0.36020    0.03490    0.30580    1.000
    C206     C        0.28550    0.18510    0.25560    1.000
    C207     C        0.40450    0.32910    0.15380    1.000
    H142     H        0.41410    0.33260    0.10930    1.000
    C208     C        0.33090    0.09640    0.34190    1.000
    H143     H        0.33500    0.08640    0.38600    1.000
    H144     H        0.47630    0.30000    0.26710    1.000
    C209     C        0.42490    0.34010    0.20710    1.000
    C210     C        0.46590    0.39470    0.15510    1.000
    H145     H        0.44280    0.40680    0.14150    1.000
    C211     C        0.31360    0.13540    0.33250    1.000
    H146     H        0.30920    0.15210    0.36980    1.000
    C212     C        0.30450    0.14600    0.26700    1.000
    C213     C        0.33040    0.08680    0.22470    1.000
    H147     H        0.33400    0.07000    0.18740    1.000
    C214     C        0.31330    0.12680    0.21440    1.000
    H148     H        0.30940    0.13700    0.17030    1.000
    C215     C        0.36660    0.31140    0.16490    1.000
    H149     H        0.35090    0.30470    0.12740    1.000
    C216     C        0.35380    0.30460    0.23200    1.000
    C217     C        0.41240    0.33420    0.27510    1.000
    H150     H        0.42800    0.34220    0.31180    1.000
    C218     C        0.37380    0.31490    0.28900    1.000
    H151     H        0.36440    0.31050    0.33350    1.000
    N11      N        0.24650    0.24400    0.07220    1.000
    C219     C        0.25810    0.21220    0.04224    1.000
    H152     H        0.26610    0.19050    0.06750    1.000
    C220     C        0.22310    0.26230    0.04000    1.000
    H153     H        0.20440    0.27690    0.06350    1.000
    H154     H        0.29960    0.97800    0.22300    1.000
    O77      O        0.51210    0.10250    0.52030    1.000
    Cu12     Cu       0.74755    0.74618    0.68369    1.000
    O78      O        0.77576    0.69798    0.69630    1.000
    O79      O        0.03306    0.95959    0.57380    1.000
    O80      O        0.95863    0.53549    0.93170    1.000
    O81      O        0.80309    0.78098    0.80180    1.000
    O82      O        0.77930    0.70243    0.81310    1.000
    O83      O        0.79839    0.77229    0.68630    1.000
    C221     C        0.96420    0.86130    0.69620    1.000
    C222     C        0.81420    0.78440    0.74210    1.000
    C223     C        0.89650    0.53520    0.84290    1.000
    H155     H        0.90990    0.55820    0.85290    1.000
    C224     C        0.84030    0.57610    0.78740    1.000
    C225     C        0.86020    0.53490    0.80580    1.000
    C226     C        0.78550    0.68510    0.75560    1.000
    C227     C        0.90450    0.82910    0.65380    1.000
    H156     H        0.91410    0.83260    0.60930    1.000
    C228     C        0.83090    0.59640    0.84190    1.000
    H157     H        0.83500    0.58640    0.88600    1.000
    H158     H        0.97630    0.80000    0.76710    1.000
    C229     C        0.92490    0.84010    0.70710    1.000
    C230     C        0.96590    0.89470    0.65510    1.000
    H159     H        0.94280    0.90680    0.64150    1.000
    C231     C        0.81360    0.63540    0.83250    1.000
    H160     H        0.80920    0.65210    0.86980    1.000
    C232     C        0.80450    0.64600    0.76700    1.000
    C233     C        0.83040    0.58680    0.72470    1.000
    H161     H        0.83400    0.57000    0.68740    1.000
    C234     C        0.81330    0.62680    0.71440    1.000
    H162     H        0.80940    0.63700    0.67030    1.000
    C235     C        0.86660    0.81140    0.66490    1.000
    H163     H        0.85090    0.80470    0.62740    1.000
    C236     C        0.85380    0.80460    0.73200    1.000
    C237     C        0.91240    0.83420    0.77510    1.000
    H164     H        0.92800    0.84220    0.81180    1.000
    C238     C        0.87380    0.81490    0.78900    1.000
    H165     H        0.86440    0.81050    0.83350    1.000
    N12      N        0.74650    0.74400    0.57220    1.000
    C239     C        0.75810    0.71220    0.54224    1.000
    H166     H        0.76610    0.69050    0.56750    1.000
    C240     C        0.72310    0.76230    0.54000    1.000
    H167     H        0.70440    0.77690    0.56350    1.000
    H168     H        0.79960    0.47800    0.72300    1.000
    O84      O        0.01210    0.60250    0.02030    1.000
    Cu13     Cu       0.24755    0.75382    0.81631    1.000
    O85      O        0.27576    0.80202    0.80370    1.000
    O86      O        0.53306    0.54041    0.92620    1.000
    O87      O        0.45863    0.96451    0.56830    1.000
    O88      O        0.30309    0.71902    0.69820    1.000
    O89      O        0.27930    0.79757    0.68690    1.000
    O90      O        0.29839    0.72771    0.81370    1.000
    C241     C        0.46420    0.63870    0.80380    1.000
    C242     C        0.31420    0.71560    0.75790    1.000
    C243     C        0.39650    0.96480    0.65710    1.000
    H169     H        0.40990    0.94180    0.64710    1.000
    C244     C        0.34030    0.92390    0.71260    1.000
    C245     C        0.36020    0.96510    0.69420    1.000
    C246     C        0.28550    0.81490    0.74440    1.000
    C247     C        0.40450    0.67090    0.84620    1.000
    H170     H        0.41410    0.66740    0.89070    1.000
    C248     C        0.33090    0.90360    0.65810    1.000
    H171     H        0.33500    0.91360    0.61400    1.000
    H172     H        0.47630    0.70000    0.73290    1.000
    C249     C        0.42490    0.65990    0.79290    1.000
    C250     C        0.46590    0.60530    0.84490    1.000
    H173     H        0.44280    0.59320    0.85850    1.000
    C251     C        0.31360    0.86460    0.66750    1.000
    H174     H        0.30920    0.84790    0.63020    1.000
    C252     C        0.30450    0.85400    0.73300    1.000
    C253     C        0.33040    0.91320    0.77530    1.000
    H175     H        0.33400    0.93000    0.81260    1.000
    C254     C        0.31330    0.87320    0.78560    1.000
    H176     H        0.30940    0.86300    0.82970    1.000
    C255     C        0.36660    0.68860    0.83510    1.000
    H177     H        0.35090    0.69530    0.87260    1.000
    C256     C        0.35380    0.69540    0.76800    1.000
    C257     C        0.41240    0.66580    0.72490    1.000
    H178     H        0.42800    0.65780    0.68820    1.000
    C258     C        0.37380    0.68510    0.71100    1.000
    H179     H        0.36440    0.68950    0.66650    1.000
    N13      N        0.24650    0.75600    0.92780    1.000
    C259     C        0.25810    0.78780    0.95776    1.000
    H180     H        0.26610    0.80950    0.93250    1.000
    C260     C        0.22310    0.73770    0.96000    1.000
    H181     H        0.20440    0.72310    0.93650    1.000
    H182     H        0.29960    0.02200    0.77700    1.000
    O91      O        0.51210    0.89750    0.47970    1.000
    Cu14     Cu       0.74755    0.25382    0.31631    1.000
    O92      O        0.77576    0.30202    0.30370    1.000
    O93      O        0.03306    0.04041    0.42620    1.000
    O94      O        0.95863    0.46451    0.06830    1.000
    O95      O        0.80309    0.21902    0.19820    1.000
    O96      O        0.77930    0.29757    0.18690    1.000
    O97      O        0.79839    0.22771    0.31370    1.000
    C261     C        0.96420    0.13870    0.30380    1.000
    C262     C        0.81420    0.21560    0.25790    1.000
    C263     C        0.89650    0.46480    0.15710    1.000
    H183     H        0.90990    0.44180    0.14710    1.000
    C264     C        0.84030    0.42390    0.21260    1.000
    C265     C        0.86020    0.46510    0.19420    1.000
    C266     C        0.78550    0.31490    0.24440    1.000
    C267     C        0.90450    0.17090    0.34620    1.000
    H184     H        0.91410    0.16740    0.39070    1.000
    C268     C        0.83090    0.40360    0.15810    1.000
    H185     H        0.83500    0.41360    0.11400    1.000
    H186     H        0.97630    0.20000    0.23290    1.000
    C269     C        0.92490    0.15990    0.29290    1.000
    C270     C        0.96590    0.10530    0.34490    1.000
    H187     H        0.94280    0.09320    0.35850    1.000
    C271     C        0.81360    0.36460    0.16750    1.000
    H188     H        0.80920    0.34790    0.13020    1.000
    C272     C        0.80450    0.35400    0.23300    1.000
    C273     C        0.83040    0.41320    0.27530    1.000
    H189     H        0.83400    0.43000    0.31260    1.000
    C274     C        0.81330    0.37320    0.28560    1.000
    H190     H        0.80940    0.36300    0.32970    1.000
    C275     C        0.86660    0.18860    0.33510    1.000
    H191     H        0.85090    0.19530    0.37260    1.000
    C276     C        0.85380    0.19540    0.26800    1.000
    C277     C        0.91240    0.16580    0.22490    1.000
    H192     H        0.92800    0.15780    0.18820    1.000
    C278     C        0.87380    0.18510    0.21100    1.000
    H193     H        0.86440    0.18950    0.16650    1.000
    N14      N        0.74650    0.25600    0.42780    1.000
    C279     C        0.75810    0.28780    0.45776    1.000
    H194     H        0.76610    0.30950    0.43250    1.000
    C280     C        0.72310    0.23770    0.46000    1.000
    H195     H        0.70440    0.22310    0.43650    1.000
    H196     H        0.79960    0.52200    0.27700    1.000
    O98      O        0.01210    0.39750    0.97970    1.000
    Cu15     Cu       0.75245    0.24618    0.81631    1.000
    O99      O        0.72424    0.19798    0.80370    1.000
    O100     O        0.46694    0.45959    0.92620    1.000
    O101     O        0.54137    0.03549    0.56830    1.000
    O102     O        0.69691    0.28098    0.69820    1.000
    O103     O        0.72070    0.20243    0.68690    1.000
    O104     O        0.70161    0.27229    0.81370    1.000
    C281     C        0.53580    0.36130    0.80380    1.000
    C282     C        0.68580    0.28440    0.75790    1.000
    C283     C        0.60350    0.03520    0.65710    1.000
    H197     H        0.59010    0.05820    0.64710    1.000
    C284     C        0.65970    0.07610    0.71260    1.000
    C285     C        0.63980    0.03490    0.69420    1.000
    C286     C        0.71450    0.18510    0.74440    1.000
    C287     C        0.59550    0.32910    0.84620    1.000
    H198     H        0.58590    0.33260    0.89070    1.000
    C288     C        0.66910    0.09640    0.65810    1.000
    H199     H        0.66500    0.08640    0.61400    1.000
    H200     H        0.52370    0.30000    0.73290    1.000
    C289     C        0.57510    0.34010    0.79290    1.000
    C290     C        0.53410    0.39470    0.84490    1.000
    H201     H        0.55720    0.40680    0.85850    1.000
    C291     C        0.68640    0.13540    0.66750    1.000
    H202     H        0.69080    0.15210    0.63020    1.000
    C292     C        0.69550    0.14600    0.73300    1.000
    C293     C        0.66960    0.08680    0.77530    1.000
    H203     H        0.66600    0.07000    0.81260    1.000
    C294     C        0.68670    0.12680    0.78560    1.000
    H204     H        0.69060    0.13700    0.82970    1.000
    C295     C        0.63340    0.31140    0.83510    1.000
    H205     H        0.64910    0.30470    0.87260    1.000
    C296     C        0.64620    0.30460    0.76800    1.000
    C297     C        0.58760    0.33420    0.72490    1.000
    H206     H        0.57200    0.34220    0.68820    1.000
    C298     C        0.62620    0.31490    0.71100    1.000
    H207     H        0.63560    0.31050    0.66650    1.000
    N15      N        0.75350    0.24400    0.92780    1.000
    C299     C        0.74190    0.21220    0.95776    1.000
    H208     H        0.73390    0.19050    0.93250    1.000
    C300     C        0.77690    0.26230    0.96000    1.000
    H209     H        0.79560    0.27690    0.93650    1.000
    H210     H        0.70040    0.97800    0.77700    1.000
    O105     O        0.48790    0.10250    0.47970    1.000
    Cu16     Cu       0.25245    0.74618    0.31631    1.000
    O106     O        0.22424    0.69798    0.30370    1.000
    O107     O        0.96694    0.95959    0.42620    1.000
    O108     O        0.04137    0.53549    0.06830    1.000
    O109     O        0.19691    0.78098    0.19820    1.000
    O110     O        0.22070    0.70243    0.18690    1.000
    O111     O        0.20161    0.77229    0.31370    1.000
    C301     C        0.03580    0.86130    0.30380    1.000
    C302     C        0.18580    0.78440    0.25790    1.000
    C303     C        0.10350    0.53520    0.15710    1.000
    H211     H        0.09010    0.55820    0.14710    1.000
    C304     C        0.15970    0.57610    0.21260    1.000
    C305     C        0.13980    0.53490    0.19420    1.000
    C306     C        0.21450    0.68510    0.24440    1.000
    C307     C        0.09550    0.82910    0.34620    1.000
    H212     H        0.08590    0.83260    0.39070    1.000
    C308     C        0.16910    0.59640    0.15810    1.000
    H213     H        0.16500    0.58640    0.11400    1.000
    H214     H        0.02370    0.80000    0.23290    1.000
    C309     C        0.07510    0.84010    0.29290    1.000
    C310     C        0.03410    0.89470    0.34490    1.000
    H215     H        0.05720    0.90680    0.35850    1.000
    C311     C        0.18640    0.63540    0.16750    1.000
    H216     H        0.19080    0.65210    0.13020    1.000
    C312     C        0.19550    0.64600    0.23300    1.000
    C313     C        0.16960    0.58680    0.27530    1.000
    H217     H        0.16600    0.57000    0.31260    1.000
    C314     C        0.18670    0.62680    0.28560    1.000
    H218     H        0.19060    0.63700    0.32970    1.000
    C315     C        0.13340    0.81140    0.33510    1.000
    H219     H        0.14910    0.80470    0.37260    1.000
    C316     C        0.14620    0.80460    0.26800    1.000
    C317     C        0.08760    0.83420    0.22490    1.000
    H220     H        0.07200    0.84220    0.18820    1.000
    C318     C        0.12620    0.81490    0.21100    1.000
    H221     H        0.13560    0.81050    0.16650    1.000
    N16      N        0.25350    0.74400    0.42780    1.000
    C319     C        0.24190    0.71220    0.45776    1.000
    H222     H        0.23390    0.69050    0.43250    1.000
    C320     C        0.27690    0.76230    0.46000    1.000
    H223     H        0.29560    0.77690    0.43650    1.000
    H224     H        0.20040    0.47800    0.27700    1.000
    O112     O        0.98790    0.60250    0.97970    1.000
    Cu17     Cu       0.50000    0.03849    0.50000    1.000
    O113     O        0.50000    0.10380    0.50000    1.000
    Cu18     Cu       0.00000    0.53849    0.00000    1.000
    O114     O        0.00000    0.60380    0.00000    1.000
    Cu19     Cu       0.50000    0.96151    0.50000    1.000
    O115     O        0.50000    0.89620    0.50000    1.000
    Cu20     Cu       0.00000    0.46151    0.00000    1.000
    O116     O        0.00000    0.39620    0.00000    1.000
    Cu21     Cu       0.53790    0.50000    0.00000    1.000
    Cu22     Cu       0.03790    0.00000    0.50000    1.000
    Cu23     Cu       0.46210    0.50000    0.00000    1.000
    Cu24     Cu       0.96210    0.00000    0.50000    1.000
    C321     C        0.50000    0.40970    0.86530    1.000
    C322     C        0.50000    0.44500    0.91110    1.000
    N17      N        0.50000    0.30690    0.74580    1.000
    C323     C        0.50000    0.34300    0.77930    1.000
    C324     C        0.00000    0.90970    0.36530    1.000
    C325     C        0.00000    0.94500    0.41110    1.000
    N18      N        0.00000    0.80690    0.24580    1.000
    C326     C        0.00000    0.84300    0.27930    1.000
    C327     C        0.50000    0.59030    0.86530    1.000
    C328     C        0.50000    0.55500    0.91110    1.000
    N19      N        0.50000    0.69310    0.74580    1.000
    C329     C        0.50000    0.65700    0.77930    1.000
    C330     C        0.00000    0.09030    0.36530    1.000
    C331     C        0.00000    0.05500    0.41110    1.000
    N20      N        0.00000    0.19310    0.24580    1.000
    C332     C        0.00000    0.15700    0.27930    1.000
    C333     C        0.50000    0.40970    0.13470    1.000
    C334     C        0.50000    0.44500    0.08890    1.000
    N21      N        0.50000    0.30690    0.25420    1.000
    C335     C        0.50000    0.34300    0.22070    1.000
    C336     C        0.00000    0.90970    0.63470    1.000
    C337     C        0.00000    0.94500    0.58890    1.000
    N22      N        0.00000    0.80690    0.75420    1.000
    C338     C        0.00000    0.84300    0.72070    1.000
    C339     C        0.50000    0.59030    0.13470    1.000
    C340     C        0.50000    0.55500    0.08890    1.000
    N23      N        0.50000    0.69310    0.25420    1.000
    C341     C        0.50000    0.65700    0.22070    1.000
    C342     C        0.00000    0.09030    0.63470    1.000
    C343     C        0.00000    0.05500    0.58890    1.000
    N24      N        0.00000    0.19310    0.75420    1.000
    C344     C        0.00000    0.15700    0.72070    1.000
    N25      N        0.30870    0.00000    0.75860    1.000
    C345     C        0.40970    0.00000    0.63780    1.000
    C346     C        0.44490    0.00000    0.58440    1.000
    C347     C        0.34140    0.00000    0.71920    1.000
    N26      N        0.80870    0.50000    0.25860    1.000
    C348     C        0.90970    0.50000    0.13780    1.000
    C349     C        0.94490    0.50000    0.08440    1.000
    C350     C        0.84140    0.50000    0.21920    1.000
    N27      N        0.69130    0.00000    0.75860    1.000
    C351     C        0.59030    0.00000    0.63780    1.000
    C352     C        0.55510    0.00000    0.58440    1.000
    C353     C        0.65860    0.00000    0.71920    1.000
    N28      N        0.19130    0.50000    0.25860    1.000
    C354     C        0.09030    0.50000    0.13780    1.000
    C355     C        0.05510    0.50000    0.08440    1.000
    C356     C        0.15860    0.50000    0.21920    1.000
    N29      N        0.69130    0.00000    0.24140    1.000
    C357     C        0.59030    0.00000    0.36220    1.000
    C358     C        0.55510    0.00000    0.41560    1.000
    C359     C        0.65860    0.00000    0.28080    1.000
    N30      N        0.19130    0.50000    0.74140    1.000
    C360     C        0.09030    0.50000    0.86220    1.000
    C361     C        0.05510    0.50000    0.91560    1.000
    C362     C        0.15860    0.50000    0.78080    1.000
    N31      N        0.30870    0.00000    0.24140    1.000
    C363     C        0.40970    0.00000    0.36220    1.000
    C364     C        0.44490    0.00000    0.41560    1.000
    C365     C        0.34140    0.00000    0.28080    1.000
    N32      N        0.80870    0.50000    0.74140    1.000
    C366     C        0.90970    0.50000    0.86220    1.000
    C367     C        0.94490    0.50000    0.91560    1.000
    C368     C        0.84140    0.50000    0.78080    1.000
