# CIF file generated by openbabel 3.1.0, see https://openbabel.org
data_I
_chemical_name_common 'CELZIE_clean'
_cell_length_a 21.3609
_cell_length_b 21.3609
_cell_length_c 10.5698
_cell_angle_alpha 90
_cell_angle_beta 90
_cell_angle_gamma 90
_space_group_name_H-M_alt 'P 1'
_space_group_name_Hall 'P 1'
loop_
    _symmetry_equiv_pos_as_xyz
    x,y,z
loop_
    _atom_site_label
    _atom_site_type_symbol
    _atom_site_fract_x
    _atom_site_fract_y
    _atom_site_fract_z
    _atom_site_occupancy
    Al1      Al       0.25939    0.81675    0.92903    1.000
    C2       C        0.95564    0.79670    0.82563    1.000
    C3       C        0.07891    0.82129    0.74978    1.000
    C4       C        0.88883    0.79073    0.87083    1.000
    C5       C        0.99317    0.85935    0.45590    1.000
    C6       C        0.96742    0.81730    0.70623    1.000
    C7       C        0.00496    0.78673    0.91810    1.000
    C8       C        0.12538    0.79456    0.95004    1.000
    C9       C        0.06251    0.80016    0.87326    1.000
    C10      C        0.03019    0.82772    0.66462    1.000
    O11      O        0.84548    0.81393    0.80593    1.000
    O12      O        0.17513    0.82042    0.91102    1.000
    O13      O        0.11705    0.76078    0.04740    1.000
    O14      O        0.88523    0.74866    0.95359    1.000
    O15      O        0.24924    0.76209    0.06101    1.000
    O16      O        0.04264    0.85631    0.54486    1.000
    H17      H        0.18965    0.47373    0.68906    1.000
    H18      H        0.12072    0.51148    0.61295    1.000
    H19      H        0.10913    0.45446    0.74407    1.000
    H20      H        0.12988    0.83185    0.72594    1.000
    H21      H        0.99282    0.76922    0.01699    1.000
    H22      H        0.92700    0.82642    0.63826    1.000
    H23      H        0.22464    0.21331    0.43899    1.000
    Al24     Al       0.75939    0.31675    0.42903    1.000
    C25      C        0.45564    0.29670    0.32563    1.000
    C26      C        0.57891    0.32129    0.24978    1.000
    C27      C        0.38883    0.29073    0.37083    1.000
    C28      C        0.49317    0.35935    0.95590    1.000
    C29      C        0.46742    0.31730    0.20623    1.000
    C30      C        0.50496    0.28673    0.41810    1.000
    C31      C        0.62538    0.29456    0.45004    1.000
    C32      C        0.56251    0.30016    0.37326    1.000
    C33      C        0.53019    0.32772    0.16462    1.000
    O34      O        0.34548    0.31393    0.30593    1.000
    O35      O        0.67513    0.32042    0.41102    1.000
    O36      O        0.61705    0.26078    0.54740    1.000
    O37      O        0.38523    0.24866    0.45359    1.000
    O38      O        0.74924    0.26209    0.56101    1.000
    O39      O        0.54264    0.35631    0.04486    1.000
    H40      H        0.68965    0.97373    0.18906    1.000
    H41      H        0.62072    0.01148    0.11295    1.000
    H42      H        0.60913    0.95446    0.24407    1.000
    H43      H        0.62988    0.33185    0.22594    1.000
    H44      H        0.49282    0.26922    0.51699    1.000
    H45      H        0.42700    0.32642    0.13826    1.000
    H46      H        0.72464    0.71331    0.93899    1.000
    Al47     Al       0.24061    0.68325    0.42903    1.000
    C48      C        0.54436    0.70330    0.32563    1.000
    C49      C        0.42109    0.67871    0.24978    1.000
    C50      C        0.61117    0.70927    0.37083    1.000
    C51      C        0.50683    0.64065    0.95590    1.000
    C52      C        0.53258    0.68270    0.20623    1.000
    C53      C        0.49504    0.71327    0.41810    1.000
    C54      C        0.37462    0.70544    0.45004    1.000
    C55      C        0.43749    0.69984    0.37326    1.000
    C56      C        0.46981    0.67228    0.16462    1.000
    O57      O        0.65452    0.68607    0.30593    1.000
    O58      O        0.32487    0.67958    0.41102    1.000
    O59      O        0.38295    0.73922    0.54740    1.000
    O60      O        0.61477    0.75134    0.45359    1.000
    O61      O        0.25076    0.73791    0.56101    1.000
    O62      O        0.45736    0.64369    0.04486    1.000
    H63      H        0.31035    0.02627    0.18906    1.000
    H64      H        0.37928    0.98852    0.11295    1.000
    H65      H        0.39087    0.04554    0.24407    1.000
    H66      H        0.37012    0.66815    0.22594    1.000
    H67      H        0.50718    0.73078    0.51699    1.000
    H68      H        0.57300    0.67358    0.13826    1.000
    H69      H        0.27536    0.28669    0.93899    1.000
    Al70     Al       0.74061    0.18325    0.92903    1.000
    C71      C        0.04436    0.20330    0.82563    1.000
    C72      C        0.92109    0.17871    0.74978    1.000
    C73      C        0.11117    0.20927    0.87083    1.000
    C74      C        0.00683    0.14065    0.45590    1.000
    C75      C        0.03258    0.18270    0.70623    1.000
    C76      C        0.99504    0.21327    0.91810    1.000
    C77      C        0.87462    0.20544    0.95004    1.000
    C78      C        0.93749    0.19984    0.87326    1.000
    C79      C        0.96981    0.17228    0.66462    1.000
    O80      O        0.15452    0.18607    0.80593    1.000
    O81      O        0.82487    0.17958    0.91102    1.000
    O82      O        0.88295    0.23922    0.04740    1.000
    O83      O        0.11477    0.25134    0.95359    1.000
    O84      O        0.75076    0.23791    0.06101    1.000
    O85      O        0.95736    0.14369    0.54486    1.000
    H86      H        0.81035    0.52627    0.68906    1.000
    H87      H        0.87928    0.48852    0.61295    1.000
    H88      H        0.89087    0.54554    0.74407    1.000
    H89      H        0.87012    0.16815    0.72594    1.000
    H90      H        0.00718    0.23078    0.01699    1.000
    H91      H        0.07300    0.17358    0.63826    1.000
    H92      H        0.77536    0.78669    0.43899    1.000
    Al93     Al       0.18325    0.75939    0.17903    1.000
    C94      C        0.20330    0.45564    0.07563    1.000
    C95      C        0.17871    0.57891    0.99978    1.000
    C96      C        0.20927    0.38883    0.12083    1.000
    C97      C        0.14065    0.49317    0.70590    1.000
    C98      C        0.18270    0.46742    0.95623    1.000
    C99      C        0.21327    0.50496    0.16810    1.000
    C100     C        0.20544    0.62538    0.20004    1.000
    C101     C        0.19984    0.56251    0.12326    1.000
    C102     C        0.17228    0.53019    0.91462    1.000
    O103     O        0.18607    0.34548    0.05593    1.000
    O104     O        0.17958    0.67513    0.16102    1.000
    O105     O        0.23922    0.61705    0.29740    1.000
    O106     O        0.25134    0.38523    0.20359    1.000
    O107     O        0.23791    0.74924    0.31101    1.000
    O108     O        0.14369    0.54264    0.79486    1.000
    H109     H        0.52627    0.68965    0.93906    1.000
    H110     H        0.48852    0.62072    0.86295    1.000
    H111     H        0.54554    0.60913    0.99407    1.000
    H112     H        0.16815    0.62988    0.97594    1.000
    H113     H        0.23078    0.49282    0.26699    1.000
    H114     H        0.17358    0.42700    0.88826    1.000
    H115     H        0.78669    0.72464    0.68899    1.000
    Al116    Al       0.68325    0.25939    0.67903    1.000
    C117     C        0.70330    0.95564    0.57563    1.000
    C118     C        0.67871    0.07891    0.49978    1.000
    C119     C        0.70927    0.88883    0.62083    1.000
    C120     C        0.64065    0.99317    0.20590    1.000
    C121     C        0.68270    0.96742    0.45623    1.000
    C122     C        0.71327    0.00496    0.66810    1.000
    C123     C        0.70544    0.12538    0.70004    1.000
    C124     C        0.69984    0.06251    0.62326    1.000
    C125     C        0.67228    0.03019    0.41462    1.000
    O126     O        0.68607    0.84548    0.55593    1.000
    O127     O        0.67958    0.17513    0.66102    1.000
    O128     O        0.73922    0.11705    0.79740    1.000
    O129     O        0.75134    0.88523    0.70359    1.000
    O130     O        0.73791    0.24924    0.81101    1.000
    O131     O        0.64369    0.04264    0.29486    1.000
    H132     H        0.02627    0.18965    0.43906    1.000
    H133     H        0.98852    0.12072    0.36295    1.000
    H134     H        0.04554    0.10913    0.49407    1.000
    H135     H        0.66815    0.12988    0.47594    1.000
    H136     H        0.73078    0.99282    0.76699    1.000
    H137     H        0.67358    0.92700    0.38826    1.000
    H138     H        0.28669    0.22464    0.18899    1.000
    Al139    Al       0.31675    0.74061    0.67903    1.000
    C140     C        0.29670    0.04436    0.57563    1.000
    C141     C        0.32129    0.92109    0.49978    1.000
    C142     C        0.29073    0.11117    0.62083    1.000
    C143     C        0.35935    0.00683    0.20590    1.000
    C144     C        0.31730    0.03258    0.45623    1.000
    C145     C        0.28673    0.99504    0.66810    1.000
    C146     C        0.29456    0.87462    0.70004    1.000
    C147     C        0.30016    0.93749    0.62326    1.000
    C148     C        0.32772    0.96981    0.41462    1.000
    O149     O        0.31393    0.15452    0.55593    1.000
    O150     O        0.32042    0.82487    0.66102    1.000
    O151     O        0.26078    0.88295    0.79740    1.000
    O152     O        0.24866    0.11477    0.70359    1.000
    O153     O        0.26209    0.75076    0.81101    1.000
    O154     O        0.35631    0.95736    0.29486    1.000
    H155     H        0.97373    0.81035    0.43906    1.000
    H156     H        0.01148    0.87928    0.36295    1.000
    H157     H        0.95446    0.89087    0.49407    1.000
    H158     H        0.33185    0.87012    0.47594    1.000
    H159     H        0.26922    0.00718    0.76699    1.000
    H160     H        0.32642    0.07300    0.38826    1.000
    H161     H        0.71331    0.77536    0.18899    1.000
    Al162    Al       0.81675    0.24061    0.17903    1.000
    C163     C        0.79670    0.54436    0.07563    1.000
    C164     C        0.82129    0.42109    0.99978    1.000
    C165     C        0.79073    0.61117    0.12083    1.000
    C166     C        0.85935    0.50683    0.70590    1.000
    C167     C        0.81730    0.53258    0.95623    1.000
    C168     C        0.78673    0.49504    0.16810    1.000
    C169     C        0.79456    0.37462    0.20004    1.000
    C170     C        0.80016    0.43749    0.12326    1.000
    C171     C        0.82772    0.46981    0.91462    1.000
    O172     O        0.81393    0.65452    0.05593    1.000
    O173     O        0.82042    0.32487    0.16102    1.000
    O174     O        0.76078    0.38295    0.29740    1.000
    O175     O        0.74866    0.61477    0.20359    1.000
    O176     O        0.76209    0.25076    0.31101    1.000
    O177     O        0.85631    0.45736    0.79486    1.000
    H178     H        0.47373    0.31035    0.93906    1.000
    H179     H        0.51148    0.37928    0.86295    1.000
    H180     H        0.45446    0.39087    0.99407    1.000
    H181     H        0.83185    0.37012    0.97594    1.000
    H182     H        0.76922    0.50718    0.26699    1.000
    H183     H        0.82642    0.57300    0.88826    1.000
    H184     H        0.21331    0.27536    0.68899    1.000
    Al185    Al       0.74061    0.68325    0.32097    1.000
    C186     C        0.04436    0.70330    0.42437    1.000
    C187     C        0.92109    0.67871    0.50022    1.000
    C188     C        0.11117    0.70927    0.37917    1.000
    C189     C        0.00683    0.64065    0.79410    1.000
    C190     C        0.03258    0.68270    0.54377    1.000
    C191     C        0.99504    0.71327    0.33190    1.000
    C192     C        0.87462    0.70544    0.29996    1.000
    C193     C        0.93749    0.69984    0.37674    1.000
    C194     C        0.96981    0.67228    0.58538    1.000
    O195     O        0.15452    0.68607    0.44407    1.000
    O196     O        0.82487    0.67958    0.33898    1.000
    O197     O        0.88295    0.73922    0.20260    1.000
    O198     O        0.11477    0.75134    0.29641    1.000
    O199     O        0.75076    0.73791    0.18899    1.000
    O200     O        0.95736    0.64369    0.70514    1.000
    H201     H        0.81035    0.02627    0.56094    1.000
    H202     H        0.87928    0.98852    0.63705    1.000
    H203     H        0.89087    0.04554    0.50593    1.000
    H204     H        0.87012    0.66815    0.52406    1.000
    H205     H        0.00718    0.73078    0.23301    1.000
    H206     H        0.07300    0.67358    0.61174    1.000
    H207     H        0.77536    0.28669    0.81101    1.000
    Al208    Al       0.24061    0.18325    0.82097    1.000
    C209     C        0.54436    0.20330    0.92437    1.000
    C210     C        0.42109    0.17871    0.00022    1.000
    C211     C        0.61117    0.20927    0.87917    1.000
    C212     C        0.50683    0.14065    0.29410    1.000
    C213     C        0.53258    0.18270    0.04377    1.000
    C214     C        0.49504    0.21327    0.83190    1.000
    C215     C        0.37462    0.20544    0.79996    1.000
    C216     C        0.43749    0.19984    0.87674    1.000
    C217     C        0.46981    0.17228    0.08538    1.000
    O218     O        0.65452    0.18607    0.94407    1.000
    O219     O        0.32487    0.17958    0.83898    1.000
    O220     O        0.38295    0.23922    0.70260    1.000
    O221     O        0.61477    0.25134    0.79641    1.000
    O222     O        0.25076    0.23791    0.68899    1.000
    O223     O        0.45736    0.14369    0.20514    1.000
    H224     H        0.31035    0.52627    0.06094    1.000
    H225     H        0.37928    0.48852    0.13705    1.000
    H226     H        0.39087    0.54554    0.00593    1.000
    H227     H        0.37012    0.16815    0.02406    1.000
    H228     H        0.50718    0.23078    0.73301    1.000
    H229     H        0.57300    0.17358    0.11174    1.000
    H230     H        0.27536    0.78669    0.31101    1.000
    Al231    Al       0.75939    0.81675    0.82097    1.000
    C232     C        0.45564    0.79670    0.92437    1.000
    C233     C        0.57891    0.82129    0.00022    1.000
    C234     C        0.38883    0.79073    0.87917    1.000
    C235     C        0.49317    0.85935    0.29410    1.000
    C236     C        0.46742    0.81730    0.04377    1.000
    C237     C        0.50496    0.78673    0.83190    1.000
    C238     C        0.62538    0.79456    0.79996    1.000
    C239     C        0.56251    0.80016    0.87674    1.000
    C240     C        0.53019    0.82772    0.08538    1.000
    O241     O        0.34548    0.81393    0.94407    1.000
    O242     O        0.67513    0.82042    0.83898    1.000
    O243     O        0.61705    0.76078    0.70260    1.000
    O244     O        0.38523    0.74866    0.79641    1.000
    O245     O        0.74924    0.76209    0.68899    1.000
    O246     O        0.54264    0.85631    0.20514    1.000
    H247     H        0.68965    0.47373    0.06094    1.000
    H248     H        0.62072    0.51148    0.13705    1.000
    H249     H        0.60913    0.45446    0.00593    1.000
    H250     H        0.62988    0.83185    0.02406    1.000
    H251     H        0.49282    0.76922    0.73301    1.000
    H252     H        0.42700    0.82642    0.11174    1.000
    H253     H        0.72464    0.21331    0.31101    1.000
    Al254    Al       0.25939    0.31675    0.32097    1.000
    C255     C        0.95564    0.29670    0.42437    1.000
    C256     C        0.07891    0.32129    0.50022    1.000
    C257     C        0.88883    0.29073    0.37917    1.000
    C258     C        0.99317    0.35935    0.79410    1.000
    C259     C        0.96742    0.31730    0.54377    1.000
    C260     C        0.00496    0.28673    0.33190    1.000
    C261     C        0.12538    0.29456    0.29996    1.000
    C262     C        0.06251    0.30016    0.37674    1.000
    C263     C        0.03019    0.32772    0.58538    1.000
    O264     O        0.84548    0.31393    0.44407    1.000
    O265     O        0.17513    0.32042    0.33898    1.000
    O266     O        0.11705    0.26078    0.20260    1.000
    O267     O        0.88523    0.24866    0.29641    1.000
    O268     O        0.24924    0.26209    0.18899    1.000
    O269     O        0.04264    0.35631    0.70514    1.000
    H270     H        0.18965    0.97373    0.56094    1.000
    H271     H        0.12072    0.01148    0.63705    1.000
    H272     H        0.10913    0.95446    0.50593    1.000
    H273     H        0.12988    0.33185    0.52406    1.000
    H274     H        0.99282    0.26922    0.23301    1.000
    H275     H        0.92700    0.32642    0.61174    1.000
    H276     H        0.22464    0.71331    0.81101    1.000
    Al277    Al       0.81675    0.74061    0.07097    1.000
    C278     C        0.79670    0.04436    0.17437    1.000
    C279     C        0.82129    0.92109    0.25022    1.000
    C280     C        0.79073    0.11117    0.12917    1.000
    C281     C        0.85935    0.00683    0.54410    1.000
    C282     C        0.81730    0.03258    0.29377    1.000
    C283     C        0.78673    0.99504    0.08190    1.000
    C284     C        0.79456    0.87462    0.04996    1.000
    C285     C        0.80016    0.93749    0.12674    1.000
    C286     C        0.82772    0.96981    0.33538    1.000
    O287     O        0.81393    0.15452    0.19407    1.000
    O288     O        0.82042    0.82487    0.08898    1.000
    O289     O        0.76078    0.88295    0.95260    1.000
    O290     O        0.74866    0.11477    0.04641    1.000
    O291     O        0.76209    0.75076    0.93899    1.000
    O292     O        0.85631    0.95736    0.45514    1.000
    H293     H        0.47373    0.81035    0.31094    1.000
    H294     H        0.51148    0.87928    0.38705    1.000
    H295     H        0.45446    0.89087    0.25593    1.000
    H296     H        0.83185    0.87012    0.27406    1.000
    H297     H        0.76922    0.00718    0.98301    1.000
    H298     H        0.82642    0.07300    0.36174    1.000
    H299     H        0.21331    0.77536    0.56101    1.000
    Al300    Al       0.31675    0.24061    0.57097    1.000
    C301     C        0.29670    0.54436    0.67437    1.000
    C302     C        0.32129    0.42109    0.75022    1.000
    C303     C        0.29073    0.61117    0.62917    1.000
    C304     C        0.35935    0.50683    0.04410    1.000
    C305     C        0.31730    0.53258    0.79377    1.000
    C306     C        0.28673    0.49504    0.58190    1.000
    C307     C        0.29456    0.37462    0.54996    1.000
    C308     C        0.30016    0.43749    0.62674    1.000
    C309     C        0.32772    0.46981    0.83538    1.000
    O310     O        0.31393    0.65452    0.69407    1.000
    O311     O        0.32042    0.32487    0.58898    1.000
    O312     O        0.26078    0.38295    0.45260    1.000
    O313     O        0.24866    0.61477    0.54641    1.000
    O314     O        0.26209    0.25076    0.43899    1.000
    O315     O        0.35631    0.45736    0.95514    1.000
    H316     H        0.97373    0.31035    0.81094    1.000
    H317     H        0.01148    0.37928    0.88705    1.000
    H318     H        0.95446    0.39087    0.75593    1.000
    H319     H        0.33185    0.37012    0.77406    1.000
    H320     H        0.26922    0.50718    0.48301    1.000
    H321     H        0.32642    0.57300    0.86174    1.000
    H322     H        0.71331    0.27536    0.06101    1.000
    Al323    Al       0.68325    0.75939    0.57097    1.000
    C324     C        0.70330    0.45564    0.67437    1.000
    C325     C        0.67871    0.57891    0.75022    1.000
    C326     C        0.70927    0.38883    0.62917    1.000
    C327     C        0.64065    0.49317    0.04410    1.000
    C328     C        0.68270    0.46742    0.79377    1.000
    C329     C        0.71327    0.50496    0.58190    1.000
    C330     C        0.70544    0.62538    0.54996    1.000
    C331     C        0.69984    0.56251    0.62674    1.000
    C332     C        0.67228    0.53019    0.83538    1.000
    O333     O        0.68607    0.34548    0.69407    1.000
    O334     O        0.67958    0.67513    0.58898    1.000
    O335     O        0.73922    0.61705    0.45260    1.000
    O336     O        0.75134    0.38523    0.54641    1.000
    O337     O        0.73791    0.74924    0.43899    1.000
    O338     O        0.64369    0.54264    0.95514    1.000
    H339     H        0.02627    0.68965    0.81094    1.000
    H340     H        0.98852    0.62072    0.88705    1.000
    H341     H        0.04554    0.60913    0.75593    1.000
    H342     H        0.66815    0.62988    0.77406    1.000
    H343     H        0.73078    0.49282    0.48301    1.000
    H344     H        0.67358    0.42700    0.86174    1.000
    H345     H        0.28669    0.72464    0.06101    1.000
    Al346    Al       0.18325    0.25939    0.07097    1.000
    C347     C        0.20330    0.95564    0.17437    1.000
    C348     C        0.17871    0.07891    0.25022    1.000
    C349     C        0.20927    0.88883    0.12917    1.000
    C350     C        0.14065    0.99317    0.54410    1.000
    C351     C        0.18270    0.96742    0.29377    1.000
    C352     C        0.21327    0.00496    0.08190    1.000
    C353     C        0.20544    0.12538    0.04996    1.000
    C354     C        0.19984    0.06251    0.12674    1.000
    C355     C        0.17228    0.03019    0.33538    1.000
    O356     O        0.18607    0.84548    0.19407    1.000
    O357     O        0.17958    0.17513    0.08898    1.000
    O358     O        0.23922    0.11705    0.95260    1.000
    O359     O        0.25134    0.88523    0.04641    1.000
    O360     O        0.23791    0.24924    0.93899    1.000
    O361     O        0.14369    0.04264    0.45514    1.000
    H362     H        0.52627    0.18965    0.31094    1.000
    H363     H        0.48852    0.12072    0.38705    1.000
    H364     H        0.54554    0.10913    0.25593    1.000
    H365     H        0.16815    0.12988    0.27406    1.000
    H366     H        0.23078    0.99282    0.98301    1.000
    H367     H        0.17358    0.92700    0.36174    1.000
    H368     H        0.78669    0.22464    0.56101    1.000
