# CIF file generated by openbabel 3.1.0, see https://openbabel.org
data_I
_chemical_name_common 'TUBJAD_clean'
_cell_length_a 8.838
_cell_length_b 15.987
_cell_length_c 16.92
_cell_angle_alpha 90
_cell_angle_beta 90
_cell_angle_gamma 90
_space_group_name_H-M_alt 'P 1'
_space_group_name_Hall 'P 1'
loop_
    _symmetry_equiv_pos_as_xyz
    x,y,z
loop_
    _atom_site_label
    _atom_site_type_symbol
    _atom_site_fract_x
    _atom_site_fract_y
    _atom_site_fract_z
    _atom_site_occupancy
    Cu1      Cu       0.07040    0.19389    0.78161    1.000
    Cu2      Cu       0.07040    0.69389    0.71839    1.000
    Cu3      Cu       0.57040    0.80611    0.21839    1.000
    Cu4      Cu       0.57040    0.30611    0.28161    1.000
    H1       H        0.99960    0.65430    0.29570    1.000
    H2       H        0.65770    0.51860    0.34940    1.000
    H3       H        0.61040    0.23840    0.62220    1.000
    H4       H        0.92930    0.01900    0.31070    1.000
    H5       H        0.62810    0.90050    0.60450    1.000
    H6       H        0.53730    0.71810    0.55770    1.000
    H7       H        0.65770    0.01860    0.15060    1.000
    H8       H        0.36280    0.68030    0.15250    1.000
    H9       H        0.74930    0.45170    0.45700    1.000
    H10      H        0.42930    0.48100    0.81070    1.000
    H11      H        0.17650    0.87910    0.12740    1.000
    H12      H        0.38270    0.48130    0.44920    1.000
    H13      H        0.84540    0.73520    0.42850    1.000
    H14      H        0.92930    0.51900    0.18930    1.000
    H15      H        0.53730    0.21810    0.94230    1.000
    H16      H        0.31410    0.08570    0.72710    1.000
    H17      H        0.78690    0.76560    0.09290    1.000
    H18      H        0.24930    0.54830    0.54300    1.000
    H19      H        0.12810    0.59950    0.10450    1.000
    H20      H        0.86280    0.81970    0.65250    1.000
    H21      H        0.42930    0.98100    0.68930    1.000
    H22      H        0.67650    0.12090    0.87260    1.000
    H23      H        0.86280    0.31970    0.84750    1.000
    H24      H        0.81410    0.91430    0.27290    1.000
    H25      H        0.49960    0.34570    0.70430    1.000
    H26      H        0.74930    0.95170    0.04300    1.000
    H27      H        0.88270    0.51870    0.55080    1.000
    H28      H        0.15770    0.48140    0.65060    1.000
    H29      H        0.36280    0.18030    0.34750    1.000
    H30      H        0.67650    0.62090    0.62740    1.000
    H31      H        0.62810    0.40050    0.89550    1.000
    H32      H        0.34540    0.76480    0.92850    1.000
    H33      H        0.33410    0.32710    0.15840    1.000
    H34      H        0.83410    0.17290    0.65840    1.000
    H35      H        0.33410    0.82710    0.34160    1.000
    H36      H        0.34540    0.26480    0.57150    1.000
    H37      H        0.83410    0.67290    0.84160    1.000
    H38      H        0.81410    0.41430    0.22710    1.000
    H39      H        0.49960    0.84570    0.79570    1.000
    H40      H        0.15770    0.98140    0.84940    1.000
    H41      H        0.28690    0.73440    0.59290    1.000
    H42      H        0.61040    0.73840    0.87780    1.000
    H43      H        0.11040    0.76160    0.37780    1.000
    H44      H        0.12810    0.09950    0.39550    1.000
    H45      H        0.38270    0.98130    0.05080    1.000
    H46      H        0.11040    0.26160    0.12220    1.000
    H47      H        0.03730    0.28190    0.44230    1.000
    H48      H        0.99960    0.15430    0.20430    1.000
    H49      H        0.31410    0.58570    0.77290    1.000
    H50      H        0.17650    0.37910    0.37260    1.000
    H51      H        0.03730    0.78190    0.05770    1.000
    H52      H        0.84540    0.23520    0.07150    1.000
    H53      H        0.78690    0.26560    0.40710    1.000
    H54      H        0.24930    0.04830    0.95700    1.000
    H55      H        0.88270    0.01870    0.94920    1.000
    H56      H        0.28690    0.23440    0.90710    1.000
    C1       C        0.80760    0.30390    0.80160    1.000
    C2       C        0.84910    0.30020    0.37510    1.000
    C3       C        0.97390    0.68270    0.55810    1.000
    C4       C        0.36120    0.11210    0.77090    1.000
    C5       C        0.86120    0.88790    0.22910    1.000
    C6       C        0.67500    0.84520    0.71370    1.000
    C7       C        0.61440    0.90470    0.66000    1.000
    C8       C        0.67500    0.34520    0.78630    1.000
    C9       C        0.76790    0.50990    0.45110    1.000
    C10      C        0.57500    0.13260    0.85720    1.000
    C11      C        0.76790    0.00990    0.04890    1.000
    C12      C        0.47390    0.31730    0.44190    1.000
    C13      C        0.73970    0.13540    0.11990    1.000
    C14      C        0.37850    0.86690    0.99830    1.000
    C15      C        0.11440    0.09530    0.34000    1.000
    C16      C        0.21330    0.95150    0.88820    1.000
    C17      C        0.71330    0.54850    0.38820    1.000
    C18      C        0.66000    0.75500    0.83060    1.000
    C19      C        0.61440    0.40470    0.84000    1.000
    C20      C        0.86120    0.38790    0.27090    1.000
    C21      C        0.23970    0.36460    0.61990    1.000
    C22      C        0.34910    0.69980    0.62490    1.000
    C23      C        0.11440    0.59530    0.16000    1.000
    C24      C        0.17500    0.15480    0.28630    1.000
    C25      C        0.29290    0.28340    0.18970    1.000
    C26      C        0.30760    0.19610    0.30160    1.000
    C27      C        0.10110    0.47420    0.24290    1.000
    C28      C        0.80760    0.80390    0.69840    1.000
    C29      C        0.23970    0.86460    0.88010    1.000
    C30      C        0.17500    0.65480    0.21370    1.000
    C31      C        0.82430    0.17720    0.06560    1.000
    C32      C        0.21330    0.45150    0.61180    1.000
    C33      C        0.30760    0.69610    0.19840    1.000
    C34      C        0.87850    0.13310    0.00170    1.000
    C35      C        0.79290    0.21660    0.68970    1.000
    C36      C        0.60110    0.52580    0.75710    1.000
    C37      C        0.57500    0.63260    0.64280    1.000
    C38      C        0.99520    0.81160    0.10100    1.000
    C39      C        0.47390    0.81730    0.05810    1.000
    C40      C        0.09300    0.67950    0.28210    1.000
    C41      C        0.01470    0.40870    0.29210    1.000
    C42      C        0.67250    0.68740    0.30910    1.000
    C43      C        0.59300    0.82050    0.78210    1.000
    C44      C        0.51470    0.09130    0.79210    1.000
    C45      C        0.32430    0.32280    0.56560    1.000
    C46      C        0.99520    0.31160    0.39900    1.000
    C47      C        0.32430    0.82280    0.93440    1.000
    C48      C        0.07500    0.86740    0.14280    1.000
    C49      C        0.82430    0.67720    0.43440    1.000
    C50      C        0.34720    0.45130    0.49400    1.000
    C51      C        0.37850    0.36690    0.50170    1.000
    C52      C        0.51470    0.59130    0.70790    1.000
    C53      C        0.84720    0.04870    0.99400    1.000
    C54      C        0.66000    0.25500    0.66940    1.000
    C55      C        0.01470    0.90870    0.20790    1.000
    C56      C        0.26790    0.99010    0.95110    1.000
    C57      C        0.16000    0.74500    0.33060    1.000
    C58      C        0.71330    0.04850    0.11180    1.000
    C59      C        0.84720    0.54870    0.50600    1.000
    C60      C        0.49520    0.18840    0.89900    1.000
    C61      C        0.09300    0.17950    0.21790    1.000
    C62      C        0.97390    0.18270    0.94190    1.000
    C63      C        0.36120    0.61210    0.72910    1.000
    C64      C        0.67250    0.18740    0.19090    1.000
    C65      C        0.34910    0.19980    0.87510    1.000
    C66      C        0.84910    0.80020    0.12490    1.000
    C67      C        0.73970    0.63540    0.38010    1.000
    C68      C        0.26790    0.49010    0.54890    1.000
    C69      C        0.34720    0.95130    0.00600    1.000
    C70      C        0.49520    0.68840    0.60100    1.000
    C71      C        0.10110    0.97420    0.25710    1.000
    C72      C        0.16000    0.24500    0.16940    1.000
    C73      C        0.59300    0.32050    0.71790    1.000
    C74      C        0.17250    0.81260    0.80910    1.000
    C75      C        0.60110    0.02580    0.74290    1.000
    C76      C        0.87850    0.63310    0.49830    1.000
    C77      C        0.17250    0.31260    0.69090    1.000
    C78      C        0.79290    0.71660    0.81030    1.000
    C79      C        0.29290    0.78340    0.31030    1.000
    C80      C        0.07500    0.36740    0.35720    1.000
    N1       N        0.86410    0.74350    0.74310    1.000
    N2       N        0.36410    0.75650    0.24310    1.000
    N3       N        0.78790    0.33260    0.31240    1.000
    N4       N        0.52690    0.97480    0.69760    1.000
    N5       N        0.86410    0.24350    0.75690    1.000
    N6       N        0.02690    0.02520    0.30240    1.000
    N7       N        0.28790    0.66740    0.68760    1.000
    N8       N        0.52690    0.47480    0.80240    1.000
    N9       N        0.28790    0.16740    0.81240    1.000
    N10      N        0.02690    0.52520    0.19760    1.000
    N11      N        0.78790    0.83260    0.18760    1.000
    N12      N        0.36410    0.25650    0.25690    1.000
    O1       O        0.01900    0.75330    0.54620    1.000
    O2       O        0.23830    0.97840    0.24090    1.000
    O3       O        0.15650    0.35110    0.75630    1.000
    O4       O        0.14740    0.23810    0.67950    1.000
    O5       O        0.73830    0.02160    0.75910    1.000
    O6       O        0.98960    0.64190    0.62430    1.000
    O7       O        0.15650    0.85110    0.74370    1.000
    O8       O        0.73830    0.52160    0.74090    1.000
    O9       O        0.64740    0.26190    0.17950    1.000
    O10      O        0.65650    0.14890    0.25630    1.000
    O11      O        0.64740    0.76190    0.32050    1.000
    O12      O        0.51900    0.74670    0.04620    1.000
    O13      O        0.98960    0.14190    0.87570    1.000
    O14      O        0.51900    0.24670    0.45380    1.000
    O15      O        0.23830    0.47840    0.25910    1.000
    O16      O        0.14740    0.73810    0.82050    1.000
    O17      O        0.48960    0.85810    0.12430    1.000
    O18      O        0.65650    0.64890    0.24370    1.000
    O19      O        0.01900    0.25330    0.95380    1.000
    O20      O        0.48960    0.35810    0.37570    1.000
