# CIF file generated by openbabel 3.1.0, see https://openbabel.org
data_I
_chemical_name_common 'image0'
_cell_length_a 31.864
_cell_length_b 31.864
_cell_length_c 12.846
_cell_angle_alpha 90
_cell_angle_beta 90
_cell_angle_gamma 120
_space_group_name_H-M_alt 'P 1'
_space_group_name_Hall 'P 1'
loop_
    _symmetry_equiv_pos_as_xyz
    x,y,z
loop_
    _atom_site_label
    _atom_site_type_symbol
    _atom_site_fract_x
    _atom_site_fract_y
    _atom_site_fract_z
    _atom_site_occupancy
    C1       C        0.02159    0.29412    0.03400    1.000
    C2       C        0.05546    0.27527    0.02270    1.000
    H1       H        0.06920    0.27650    0.95810    1.000
    C3       C        0.06643    0.25664    0.10330    1.000
    H2       H        0.05010    0.25490    0.16460    1.000
    C4       C        0.10012    0.23843    0.11080    1.000
    C5       C        0.13111    0.24046    0.03200    1.000
    C6       C        0.16487    0.22550    0.04960    1.000
    H3       H        0.18550    0.22730    0.99630    1.000
    C7       C        0.16770    0.20793    0.14670    1.000
    H4       H        0.19070    0.19860    0.15860    1.000
    C8       C        0.13680    0.20400    0.22490    1.000
    H5       H        0.13810    0.19140    0.28930    1.000
    C9       C        0.10353    0.21904    0.20730    1.000
    H6       H        0.08260    0.21620    0.26090    1.000
    C10      C        0.91098    0.24013    0.81490    1.000
    H7       H        0.91550    0.25080    0.88350    1.000
    C11      C        0.86566    0.20358    0.78530    1.000
    H8       H        0.84060    0.19020    0.83380    1.000
    C12      C        0.85732    0.18671    0.68360    1.000
    C13      C        0.89677    0.20916    0.61550    1.000
    H9       H        0.89320    0.19970    0.54600    1.000
    C14      C        0.94085    0.24519    0.65120    1.000
    H10      H        0.96660    0.25940    0.60460    1.000
    N1       N        0.94852    0.26086    0.75010    1.000
    O1       O        0.01044    0.30035    0.12450    1.000
    O2       O        0.00454    0.30376    0.95470    1.000
    O3       O        0.12857    0.25786    0.93820    1.000
    H11      H        0.15550    0.27140    0.91120    1.000
    Zn1      Zn       0.01673    0.30926    0.80286    1.000
    C15      C        0.68826    0.62745    0.36733    1.000
    C16      C        0.72213    0.60860    0.35603    1.000
    H12      H        0.73587    0.60983    0.29143    1.000
    C17      C        0.73310    0.58997    0.43663    1.000
    H13      H        0.71677    0.58823    0.49793    1.000
    C18      C        0.76679    0.57176    0.44413    1.000
    C19      C        0.79778    0.57379    0.36533    1.000
    C20      C        0.83154    0.55883    0.38293    1.000
    H14      H        0.85217    0.56063    0.32963    1.000
    C21      C        0.83437    0.54126    0.48003    1.000
    H15      H        0.85737    0.53193    0.49193    1.000
    C22      C        0.80347    0.53733    0.55823    1.000
    H16      H        0.80477    0.52473    0.62263    1.000
    C23      C        0.77020    0.55237    0.54063    1.000
    H17      H        0.74927    0.54953    0.59423    1.000
    C24      C        0.57765    0.57346    0.14823    1.000
    H18      H        0.58217    0.58413    0.21683    1.000
    C25      C        0.53233    0.53691    0.11863    1.000
    H19      H        0.50727    0.52353    0.16713    1.000
    C26      C        0.52399    0.52004    0.01693    1.000
    C27      C        0.56344    0.54249    0.94883    1.000
    H20      H        0.55987    0.53303    0.87933    1.000
    C28      C        0.60752    0.57852    0.98453    1.000
    H21      H        0.63327    0.59273    0.93793    1.000
    N2       N        0.61519    0.59419    0.08343    1.000
    O4       O        0.67711    0.63368    0.45783    1.000
    O5       O        0.67121    0.63709    0.28803    1.000
    O6       O        0.79524    0.59119    0.27153    1.000
    H22      H        0.82217    0.60473    0.24453    1.000
    Zn2      Zn       0.68339    0.64260    0.13619    1.000
    C29      C        0.35492    0.96079    0.70067    1.000
    C30      C        0.38879    0.94194    0.68937    1.000
    H23      H        0.40253    0.94317    0.62477    1.000
    C31      C        0.39976    0.92331    0.76997    1.000
    H24      H        0.38343    0.92157    0.83127    1.000
    C32      C        0.43345    0.90510    0.77747    1.000
    C33      C        0.46444    0.90713    0.69867    1.000
    C34      C        0.49820    0.89217    0.71627    1.000
    H25      H        0.51883    0.89397    0.66297    1.000
    C35      C        0.50103    0.87460    0.81337    1.000
    H26      H        0.52403    0.86527    0.82527    1.000
    C36      C        0.47013    0.87067    0.89157    1.000
    H27      H        0.47143    0.85807    0.95597    1.000
    C37      C        0.43686    0.88571    0.87397    1.000
    H28      H        0.41593    0.88287    0.92757    1.000
    C38      C        0.24431    0.90680    0.48157    1.000
    H29      H        0.24883    0.91747    0.55017    1.000
    C39      C        0.19899    0.87025    0.45197    1.000
    H30      H        0.17393    0.85687    0.50047    1.000
    C40      C        0.19065    0.85338    0.35027    1.000
    C41      C        0.23010    0.87583    0.28217    1.000
    H31      H        0.22653    0.86637    0.21267    1.000
    C42      C        0.27418    0.91186    0.31787    1.000
    H32      H        0.29993    0.92607    0.27127    1.000
    N3       N        0.28185    0.92753    0.41677    1.000
    O7       O        0.34377    0.96702    0.79117    1.000
    O8       O        0.33787    0.97043    0.62137    1.000
    O9       O        0.46190    0.92453    0.60487    1.000
    H33      H        0.48883    0.93807    0.57787    1.000
    Zn3      Zn       0.35006    0.97593    0.46953    1.000
    C43      C        0.70588    0.72747    0.03400    1.000
    C44      C        0.72473    0.78019    0.02270    1.000
    H34      H        0.72350    0.79270    0.95810    1.000
    C45      C        0.74336    0.80979    0.10330    1.000
    H35      H        0.74510    0.79520    0.16460    1.000
    C46      C        0.76157    0.86169    0.11080    1.000
    C47      C        0.75954    0.89065    0.03200    1.000
    C48      C        0.77450    0.93937    0.04960    1.000
    H36      H        0.77270    0.95820    0.99630    1.000
    C49      C        0.79207    0.95977    0.14670    1.000
    H37      H        0.80140    0.99210    0.15860    1.000
    C50      C        0.79600    0.93280    0.22490    1.000
    H38      H        0.80860    0.94670    0.28930    1.000
    C51      C        0.78096    0.88449    0.20730    1.000
    H39      H        0.78380    0.86640    0.26090    1.000
    C52      C        0.75987    0.67085    0.81490    1.000
    H40      H        0.74920    0.66470    0.88350    1.000
    C53      C        0.79642    0.66208    0.78530    1.000
    H41      H        0.80980    0.65040    0.83380    1.000
    C54      C        0.81329    0.67061    0.68360    1.000
    C55      C        0.79084    0.68761    0.61550    1.000
    H42      H        0.80030    0.69350    0.54600    1.000
    C56      C        0.75481    0.69566    0.65120    1.000
    H43      H        0.74060    0.70720    0.60460    1.000
    N4       N        0.73914    0.68766    0.75010    1.000
    O10      O        0.69965    0.71009    0.12450    1.000
    O11      O        0.69624    0.70078    0.95470    1.000
    O12      O        0.74214    0.87071    0.93820    1.000
    H44      H        0.72860    0.88410    0.91120    1.000
    Zn4      Zn       0.69074    0.70746    0.80286    1.000
    C57      C        0.37255    0.06080    0.36733    1.000
    C58      C        0.39140    0.11352    0.35603    1.000
    H45      H        0.39017    0.12603    0.29143    1.000
    C59      C        0.41003    0.14312    0.43663    1.000
    H46      H        0.41177    0.12853    0.49793    1.000
    C60      C        0.42824    0.19502    0.44413    1.000
    C61      C        0.42621    0.22398    0.36533    1.000
    C62      C        0.44117    0.27270    0.38293    1.000
    H47      H        0.43937    0.29153    0.32963    1.000
    C63      C        0.45874    0.29310    0.48003    1.000
    H48      H        0.46807    0.32543    0.49193    1.000
    C64      C        0.46267    0.26613    0.55823    1.000
    H49      H        0.47527    0.28003    0.62263    1.000
    C65      C        0.44763    0.21782    0.54063    1.000
    H50      H        0.45047    0.19973    0.59423    1.000
    C66      C        0.42654    0.00418    0.14823    1.000
    H51      H        0.41587    0.99803    0.21683    1.000
    C67      C        0.46309    0.99541    0.11863    1.000
    H52      H        0.47647    0.98373    0.16713    1.000
    C68      C        0.47996    0.00394    0.01693    1.000
    C69      C        0.45751    0.02094    0.94883    1.000
    H53      H        0.46697    0.02683    0.87933    1.000
    C70      C        0.42148    0.02899    0.98453    1.000
    H54      H        0.40727    0.04053    0.93793    1.000
    N5       N        0.40581    0.02099    0.08343    1.000
    O13      O        0.36632    0.04342    0.45783    1.000
    O14      O        0.36291    0.03411    0.28803    1.000
    O15      O        0.40881    0.20404    0.27153    1.000
    H55      H        0.39527    0.21743    0.24453    1.000
    Zn5      Zn       0.35740    0.04080    0.13619    1.000
    C71      C        0.03921    0.39414    0.70067    1.000
    C72      C        0.05806    0.44686    0.68937    1.000
    H56      H        0.05683    0.45937    0.62477    1.000
    C73      C        0.07669    0.47646    0.76997    1.000
    H57      H        0.07843    0.46187    0.83127    1.000
    C74      C        0.09490    0.52836    0.77747    1.000
    C75      C        0.09287    0.55732    0.69867    1.000
    C76      C        0.10783    0.60604    0.71627    1.000
    H58      H        0.10603    0.62487    0.66297    1.000
    C77      C        0.12540    0.62644    0.81337    1.000
    H59      H        0.13473    0.65877    0.82527    1.000
    C78      C        0.12933    0.59947    0.89157    1.000
    H60      H        0.14193    0.61337    0.95597    1.000
    C79      C        0.11429    0.55116    0.87397    1.000
    H61      H        0.11713    0.53307    0.92757    1.000
    C80      C        0.09320    0.33752    0.48157    1.000
    H62      H        0.08253    0.33137    0.55017    1.000
    C81      C        0.12975    0.32875    0.45197    1.000
    H63      H        0.14313    0.31707    0.50047    1.000
    C82      C        0.14662    0.33728    0.35027    1.000
    C83      C        0.12417    0.35428    0.28217    1.000
    H64      H        0.13363    0.36017    0.21267    1.000
    C84      C        0.08814    0.36233    0.31787    1.000
    H65      H        0.07393    0.37387    0.27127    1.000
    N6       N        0.07247    0.35433    0.41677    1.000
    O16      O        0.03298    0.37676    0.79117    1.000
    O17      O        0.02957    0.36745    0.62137    1.000
    O18      O        0.07547    0.53738    0.60487    1.000
    H66      H        0.06193    0.55077    0.57787    1.000
    Zn6      Zn       0.02407    0.37413    0.46953    1.000
    C85      C        0.27253    0.97841    0.03400    1.000
    C86      C        0.21981    0.94454    0.02270    1.000
    H67      H        0.20730    0.93080    0.95810    1.000
    C87      C        0.19021    0.93357    0.10330    1.000
    H68      H        0.20480    0.94990    0.16460    1.000
    C88      C        0.13831    0.89988    0.11080    1.000
    C89      C        0.10935    0.86889    0.03200    1.000
    C90      C        0.06063    0.83513    0.04960    1.000
    H69      H        0.04180    0.81450    0.99630    1.000
    C91      C        0.04023    0.83230    0.14670    1.000
    H70      H        0.00790    0.80930    0.15860    1.000
    C92      C        0.06720    0.86320    0.22490    1.000
    H71      H        0.05330    0.86190    0.28930    1.000
    C93      C        0.11551    0.89647    0.20730    1.000
    H72      H        0.13360    0.91740    0.26090    1.000
    C94      C        0.32915    0.08902    0.81490    1.000
    H73      H        0.33530    0.08450    0.88350    1.000
    C95      C        0.33792    0.13434    0.78530    1.000
    H74      H        0.34960    0.15940    0.83380    1.000
    C96      C        0.32939    0.14268    0.68360    1.000
    C97      C        0.31239    0.10323    0.61550    1.000
    H75      H        0.30650    0.10680    0.54600    1.000
    C98      C        0.30434    0.05915    0.65120    1.000
    H76      H        0.29280    0.03340    0.60460    1.000
    N7       N        0.31234    0.05148    0.75010    1.000
    O19      O        0.28991    0.98956    0.12450    1.000
    O20      O        0.29922    0.99546    0.95470    1.000
    O21      O        0.12929    0.87143    0.93820    1.000
    H77      H        0.11590    0.84450    0.91120    1.000
    Zn7      Zn       0.29254    0.98327    0.80286    1.000
    C99      C        0.93920    0.31174    0.36733    1.000
    C100     C        0.88648    0.27787    0.35603    1.000
    H78      H        0.87397    0.26413    0.29143    1.000
    C101     C        0.85688    0.26690    0.43663    1.000
    H79      H        0.87147    0.28323    0.49793    1.000
    C102     C        0.80498    0.23321    0.44413    1.000
    C103     C        0.77602    0.20222    0.36533    1.000
    C104     C        0.72730    0.16846    0.38293    1.000
    H80      H        0.70847    0.14783    0.32963    1.000
    C105     C        0.70690    0.16563    0.48003    1.000
    H81      H        0.67457    0.14263    0.49193    1.000
    C106     C        0.73387    0.19653    0.55823    1.000
    H82      H        0.71997    0.19523    0.62263    1.000
    C107     C        0.78218    0.22980    0.54063    1.000
    H83      H        0.80027    0.25073    0.59423    1.000
    C108     C        0.99582    0.42235    0.14823    1.000
    H84      H        0.00197    0.41783    0.21683    1.000
    C109     C        0.00459    0.46767    0.11863    1.000
    H85      H        0.01627    0.49273    0.16713    1.000
    C110     C        0.99606    0.47601    0.01693    1.000
    C111     C        0.97906    0.43656    0.94883    1.000
    H86      H        0.97317    0.44013    0.87933    1.000
    C112     C        0.97101    0.39248    0.98453    1.000
    H87      H        0.95947    0.36673    0.93793    1.000
    N8       N        0.97901    0.38481    0.08343    1.000
    O22      O        0.95658    0.32289    0.45783    1.000
    O23      O        0.96589    0.32879    0.28803    1.000
    O24      O        0.79596    0.20476    0.27153    1.000
    H88      H        0.78257    0.17783    0.24453    1.000
    Zn8      Zn       0.95920    0.31661    0.13619    1.000
    C113     C        0.60586    0.64508    0.70067    1.000
    C114     C        0.55314    0.61121    0.68937    1.000
    H89      H        0.54063    0.59747    0.62477    1.000
    C115     C        0.52354    0.60024    0.76997    1.000
    H90      H        0.53813    0.61657    0.83127    1.000
    C116     C        0.47164    0.56655    0.77747    1.000
    C117     C        0.44268    0.53556    0.69867    1.000
    C118     C        0.39396    0.50180    0.71627    1.000
    H91      H        0.37513    0.48117    0.66297    1.000
    C119     C        0.37356    0.49897    0.81337    1.000
    H92      H        0.34123    0.47597    0.82527    1.000
    C120     C        0.40053    0.52987    0.89157    1.000
    H93      H        0.38663    0.52857    0.95597    1.000
    C121     C        0.44884    0.56314    0.87397    1.000
    H94      H        0.46693    0.58407    0.92757    1.000
    C122     C        0.66248    0.75569    0.48157    1.000
    H95      H        0.66863    0.75117    0.55017    1.000
    C123     C        0.67125    0.80101    0.45197    1.000
    H96      H        0.68293    0.82607    0.50047    1.000
    C124     C        0.66272    0.80935    0.35027    1.000
    C125     C        0.64572    0.76990    0.28217    1.000
    H97      H        0.63983    0.77347    0.21267    1.000
    C126     C        0.63767    0.72582    0.31787    1.000
    H98      H        0.62613    0.70007    0.27127    1.000
    N9       N        0.64567    0.71815    0.41677    1.000
    O25      O        0.62324    0.65623    0.79117    1.000
    O26      O        0.63255    0.66213    0.62137    1.000
    O27      O        0.46262    0.53810    0.60487    1.000
    H99      H        0.44923    0.51117    0.57787    1.000
    Zn9      Zn       0.62587    0.64994    0.46953    1.000
    C127     C        0.97841    0.70588    0.96600    1.000
    C128     C        0.94454    0.72473    0.97730    1.000
    H100     H        0.93080    0.72350    0.04190    1.000
    C129     C        0.93357    0.74336    0.89670    1.000
    H101     H        0.94990    0.74510    0.83540    1.000
    C130     C        0.89988    0.76157    0.88920    1.000
    C131     C        0.86889    0.75954    0.96800    1.000
    C132     C        0.83513    0.77450    0.95040    1.000
    H102     H        0.81450    0.77270    0.00370    1.000
    C133     C        0.83230    0.79207    0.85330    1.000
    H103     H        0.80930    0.80140    0.84140    1.000
    C134     C        0.86320    0.79600    0.77510    1.000
    H104     H        0.86190    0.80860    0.71070    1.000
    C135     C        0.89647    0.78096    0.79270    1.000
    H105     H        0.91740    0.78380    0.73910    1.000
    C136     C        0.08902    0.75987    0.18510    1.000
    H106     H        0.08450    0.74920    0.11650    1.000
    C137     C        0.13434    0.79642    0.21470    1.000
    H107     H        0.15940    0.80980    0.16620    1.000
    C138     C        0.14268    0.81329    0.31640    1.000
    C139     C        0.10323    0.79084    0.38450    1.000
    H108     H        0.10680    0.80030    0.45400    1.000
    C140     C        0.05915    0.75481    0.34880    1.000
    H109     H        0.03340    0.74060    0.39540    1.000
    N10      N        0.05148    0.73914    0.24990    1.000
    O28      O        0.98956    0.69965    0.87550    1.000
    O29      O        0.99546    0.69624    0.04530    1.000
    O30      O        0.87143    0.74214    0.06180    1.000
    H110     H        0.84450    0.72860    0.08880    1.000
    Zn10     Zn       0.98327    0.69074    0.19714    1.000
    C141     C        0.64508    0.03921    0.29933    1.000
    C142     C        0.61121    0.05806    0.31063    1.000
    H111     H        0.59747    0.05683    0.37523    1.000
    C143     C        0.60024    0.07669    0.23003    1.000
    H112     H        0.61657    0.07843    0.16873    1.000
    C144     C        0.56655    0.09490    0.22253    1.000
    C145     C        0.53556    0.09287    0.30133    1.000
    C146     C        0.50180    0.10783    0.28373    1.000
    H113     H        0.48117    0.10603    0.33703    1.000
    C147     C        0.49897    0.12540    0.18663    1.000
    H114     H        0.47597    0.13473    0.17473    1.000
    C148     C        0.52987    0.12933    0.10843    1.000
    H115     H        0.52857    0.14193    0.04403    1.000
    C149     C        0.56314    0.11429    0.12603    1.000
    H116     H        0.58407    0.11713    0.07243    1.000
    C150     C        0.75569    0.09320    0.51843    1.000
    H117     H        0.75117    0.08253    0.44983    1.000
    C151     C        0.80101    0.12975    0.54803    1.000
    H118     H        0.82607    0.14313    0.49953    1.000
    C152     C        0.80935    0.14662    0.64973    1.000
    C153     C        0.76990    0.12417    0.71783    1.000
    H119     H        0.77347    0.13363    0.78733    1.000
    C154     C        0.72582    0.08814    0.68213    1.000
    H120     H        0.70007    0.07393    0.72873    1.000
    N11      N        0.71815    0.07247    0.58323    1.000
    O31      O        0.65623    0.03298    0.20883    1.000
    O32      O        0.66213    0.02957    0.37863    1.000
    O33      O        0.53810    0.07547    0.39513    1.000
    H121     H        0.51117    0.06193    0.42213    1.000
    Zn11     Zn       0.64994    0.02407    0.53047    1.000
    C155     C        0.31174    0.37255    0.63267    1.000
    C156     C        0.27787    0.39140    0.64397    1.000
    H122     H        0.26413    0.39017    0.70857    1.000
    C157     C        0.26690    0.41003    0.56337    1.000
    H123     H        0.28323    0.41177    0.50207    1.000
    C158     C        0.23321    0.42824    0.55587    1.000
    C159     C        0.20222    0.42621    0.63467    1.000
    C160     C        0.16846    0.44117    0.61707    1.000
    H124     H        0.14783    0.43937    0.67037    1.000
    C161     C        0.16563    0.45874    0.51997    1.000
    H125     H        0.14263    0.46807    0.50807    1.000
    C162     C        0.19653    0.46267    0.44177    1.000
    H126     H        0.19523    0.47527    0.37737    1.000
    C163     C        0.22980    0.44763    0.45937    1.000
    H127     H        0.25073    0.45047    0.40577    1.000
    C164     C        0.42235    0.42654    0.85177    1.000
    H128     H        0.41783    0.41587    0.78317    1.000
    C165     C        0.46767    0.46309    0.88137    1.000
    H129     H        0.49273    0.47647    0.83287    1.000
    C166     C        0.47601    0.47996    0.98307    1.000
    C167     C        0.43656    0.45751    0.05117    1.000
    H130     H        0.44013    0.46697    0.12067    1.000
    C168     C        0.39248    0.42148    0.01547    1.000
    H131     H        0.36673    0.40727    0.06207    1.000
    N12      N        0.38481    0.40581    0.91657    1.000
    O34      O        0.32289    0.36632    0.54217    1.000
    O35      O        0.32879    0.36291    0.71197    1.000
    O36      O        0.20476    0.40881    0.72847    1.000
    H132     H        0.17783    0.39527    0.75547    1.000
    Zn12     Zn       0.31661    0.35740    0.86381    1.000
    C169     C        0.29412    0.27253    0.96600    1.000
    C170     C        0.27527    0.21981    0.97730    1.000
    H133     H        0.27650    0.20730    0.04190    1.000
    C171     C        0.25664    0.19021    0.89670    1.000
    H134     H        0.25490    0.20480    0.83540    1.000
    C172     C        0.23843    0.13831    0.88920    1.000
    C173     C        0.24046    0.10935    0.96800    1.000
    C174     C        0.22550    0.06063    0.95040    1.000
    H135     H        0.22730    0.04180    0.00370    1.000
    C175     C        0.20793    0.04023    0.85330    1.000
    H136     H        0.19860    0.00790    0.84140    1.000
    C176     C        0.20400    0.06720    0.77510    1.000
    H137     H        0.19140    0.05330    0.71070    1.000
    C177     C        0.21904    0.11551    0.79270    1.000
    H138     H        0.21620    0.13360    0.73910    1.000
    C178     C        0.24013    0.32915    0.18510    1.000
    H139     H        0.25080    0.33530    0.11650    1.000
    C179     C        0.20358    0.33792    0.21470    1.000
    H140     H        0.19020    0.34960    0.16620    1.000
    C180     C        0.18671    0.32939    0.31640    1.000
    C181     C        0.20916    0.31239    0.38450    1.000
    H141     H        0.19970    0.30650    0.45400    1.000
    C182     C        0.24519    0.30434    0.34880    1.000
    H142     H        0.25940    0.29280    0.39540    1.000
    N13      N        0.26086    0.31234    0.24990    1.000
    O37      O        0.30035    0.28991    0.87550    1.000
    O38      O        0.30376    0.29922    0.04530    1.000
    O39      O        0.25786    0.12929    0.06180    1.000
    H143     H        0.27140    0.11590    0.08880    1.000
    Zn13     Zn       0.30926    0.29254    0.19714    1.000
    C183     C        0.96079    0.60586    0.29933    1.000
    C184     C        0.94194    0.55314    0.31063    1.000
    H144     H        0.94317    0.54063    0.37523    1.000
    C185     C        0.92331    0.52354    0.23003    1.000
    H145     H        0.92157    0.53813    0.16873    1.000
    C186     C        0.90510    0.47164    0.22253    1.000
    C187     C        0.90713    0.44268    0.30133    1.000
    C188     C        0.89217    0.39396    0.28373    1.000
    H146     H        0.89397    0.37513    0.33703    1.000
    C189     C        0.87460    0.37356    0.18663    1.000
    H147     H        0.86527    0.34123    0.17473    1.000
    C190     C        0.87067    0.40053    0.10843    1.000
    H148     H        0.85807    0.38663    0.04403    1.000
    C191     C        0.88571    0.44884    0.12603    1.000
    H149     H        0.88287    0.46693    0.07243    1.000
    C192     C        0.90680    0.66248    0.51843    1.000
    H150     H        0.91747    0.66863    0.44983    1.000
    C193     C        0.87025    0.67125    0.54803    1.000
    H151     H        0.85687    0.68293    0.49953    1.000
    C194     C        0.85338    0.66272    0.64973    1.000
    C195     C        0.87583    0.64572    0.71783    1.000
    H152     H        0.86637    0.63983    0.78733    1.000
    C196     C        0.91186    0.63767    0.68213    1.000
    H153     H        0.92607    0.62613    0.72873    1.000
    N14      N        0.92753    0.64567    0.58323    1.000
    O40      O        0.96702    0.62324    0.20883    1.000
    O41      O        0.97043    0.63255    0.37863    1.000
    O42      O        0.92453    0.46262    0.39513    1.000
    H154     H        0.93807    0.44923    0.42213    1.000
    Zn14     Zn       0.97593    0.62587    0.53047    1.000
    C197     C        0.62745    0.93920    0.63267    1.000
    C198     C        0.60860    0.88648    0.64397    1.000
    H155     H        0.60983    0.87397    0.70857    1.000
    C199     C        0.58997    0.85688    0.56337    1.000
    H156     H        0.58823    0.87147    0.50207    1.000
    C200     C        0.57176    0.80498    0.55587    1.000
    C201     C        0.57379    0.77602    0.63467    1.000
    C202     C        0.55883    0.72730    0.61707    1.000
    H157     H        0.56063    0.70847    0.67037    1.000
    C203     C        0.54126    0.70690    0.51997    1.000
    H158     H        0.53193    0.67457    0.50807    1.000
    C204     C        0.53733    0.73387    0.44177    1.000
    H159     H        0.52473    0.71997    0.37737    1.000
    C205     C        0.55237    0.78218    0.45937    1.000
    H160     H        0.54953    0.80027    0.40577    1.000
    C206     C        0.57346    0.99582    0.85177    1.000
    H161     H        0.58413    0.00197    0.78317    1.000
    C207     C        0.53691    0.00459    0.88137    1.000
    H162     H        0.52353    0.01627    0.83287    1.000
    C208     C        0.52004    0.99606    0.98307    1.000
    C209     C        0.54249    0.97906    0.05117    1.000
    H163     H        0.53303    0.97317    0.12067    1.000
    C210     C        0.57852    0.97101    0.01547    1.000
    H164     H        0.59273    0.95947    0.06207    1.000
    N15      N        0.59419    0.97901    0.91657    1.000
    O43      O        0.63368    0.95658    0.54217    1.000
    O44      O        0.63709    0.96589    0.71197    1.000
    O45      O        0.59119    0.79596    0.72847    1.000
    H165     H        0.60473    0.78257    0.75547    1.000
    Zn15     Zn       0.64260    0.95920    0.86381    1.000
    C211     C        0.72747    0.02159    0.96600    1.000
    C212     C        0.78019    0.05546    0.97730    1.000
    H166     H        0.79270    0.06920    0.04190    1.000
    C213     C        0.80979    0.06643    0.89670    1.000
    H167     H        0.79520    0.05010    0.83540    1.000
    C214     C        0.86169    0.10012    0.88920    1.000
    C215     C        0.89065    0.13111    0.96800    1.000
    C216     C        0.93937    0.16487    0.95040    1.000
    H168     H        0.95820    0.18550    0.00370    1.000
    C217     C        0.95977    0.16770    0.85330    1.000
    H169     H        0.99210    0.19070    0.84140    1.000
    C218     C        0.93280    0.13680    0.77510    1.000
    H170     H        0.94670    0.13810    0.71070    1.000
    C219     C        0.88449    0.10353    0.79270    1.000
    H171     H        0.86640    0.08260    0.73910    1.000
    C220     C        0.67085    0.91098    0.18510    1.000
    H172     H        0.66470    0.91550    0.11650    1.000
    C221     C        0.66208    0.86566    0.21470    1.000
    H173     H        0.65040    0.84060    0.16620    1.000
    C222     C        0.67061    0.85732    0.31640    1.000
    C223     C        0.68761    0.89677    0.38450    1.000
    H174     H        0.69350    0.89320    0.45400    1.000
    C224     C        0.69566    0.94085    0.34880    1.000
    H175     H        0.70720    0.96660    0.39540    1.000
    N16      N        0.68766    0.94852    0.24990    1.000
    O46      O        0.71009    0.01044    0.87550    1.000
    O47      O        0.70078    0.00454    0.04530    1.000
    O48      O        0.87071    0.12857    0.06180    1.000
    H176     H        0.88410    0.15550    0.08880    1.000
    Zn16     Zn       0.70746    0.01673    0.19714    1.000
    C225     C        0.39414    0.35492    0.29933    1.000
    C226     C        0.44686    0.38879    0.31063    1.000
    H177     H        0.45937    0.40253    0.37523    1.000
    C227     C        0.47646    0.39976    0.23003    1.000
    H178     H        0.46187    0.38343    0.16873    1.000
    C228     C        0.52836    0.43345    0.22253    1.000
    C229     C        0.55732    0.46444    0.30133    1.000
    C230     C        0.60604    0.49820    0.28373    1.000
    H179     H        0.62487    0.51883    0.33703    1.000
    C231     C        0.62644    0.50103    0.18663    1.000
    H180     H        0.65877    0.52403    0.17473    1.000
    C232     C        0.59947    0.47013    0.10843    1.000
    H181     H        0.61337    0.47143    0.04403    1.000
    C233     C        0.55116    0.43686    0.12603    1.000
    H182     H        0.53307    0.41593    0.07243    1.000
    C234     C        0.33752    0.24431    0.51843    1.000
    H183     H        0.33137    0.24883    0.44983    1.000
    C235     C        0.32875    0.19899    0.54803    1.000
    H184     H        0.31707    0.17393    0.49953    1.000
    C236     C        0.33728    0.19065    0.64973    1.000
    C237     C        0.35428    0.23010    0.71783    1.000
    H185     H        0.36017    0.22653    0.78733    1.000
    C238     C        0.36233    0.27418    0.68213    1.000
    H186     H        0.37387    0.29993    0.72873    1.000
    N17      N        0.35433    0.28185    0.58323    1.000
    O49      O        0.37676    0.34377    0.20883    1.000
    O50      O        0.36745    0.33787    0.37863    1.000
    O51      O        0.53738    0.46190    0.39513    1.000
    H187     H        0.55077    0.48883    0.42213    1.000
    Zn17     Zn       0.37413    0.35006    0.53047    1.000
    C239     C        0.06080    0.68826    0.63267    1.000
    C240     C        0.11352    0.72213    0.64397    1.000
    H188     H        0.12603    0.73587    0.70857    1.000
    C241     C        0.14312    0.73310    0.56337    1.000
    H189     H        0.12853    0.71677    0.50207    1.000
    C242     C        0.19502    0.76679    0.55587    1.000
    C243     C        0.22398    0.79778    0.63467    1.000
    C244     C        0.27270    0.83154    0.61707    1.000
    H190     H        0.29153    0.85217    0.67037    1.000
    C245     C        0.29310    0.83437    0.51997    1.000
    H191     H        0.32543    0.85737    0.50807    1.000
    C246     C        0.26613    0.80347    0.44177    1.000
    H192     H        0.28003    0.80477    0.37737    1.000
    C247     C        0.21782    0.77020    0.45937    1.000
    H193     H        0.19973    0.74927    0.40577    1.000
    C248     C        0.00418    0.57765    0.85177    1.000
    H194     H        0.99803    0.58217    0.78317    1.000
    C249     C        0.99541    0.53233    0.88137    1.000
    H195     H        0.98373    0.50727    0.83287    1.000
    C250     C        0.00394    0.52399    0.98307    1.000
    C251     C        0.02094    0.56344    0.05117    1.000
    H196     H        0.02683    0.55987    0.12067    1.000
    C252     C        0.02899    0.60752    0.01547    1.000
    H197     H        0.04053    0.63327    0.06207    1.000
    N18      N        0.02099    0.61519    0.91657    1.000
    O52      O        0.04342    0.67711    0.54217    1.000
    O53      O        0.03411    0.67121    0.71197    1.000
    O54      O        0.20404    0.79524    0.72847    1.000
    H198     H        0.21743    0.82217    0.75547    1.000
    Zn18     Zn       0.04080    0.68339    0.86381    1.000
