# CIF file generated by openbabel 3.1.0, see https://openbabel.org
data_I
_chemical_name_common 'image0'
_cell_length_a 14.139
_cell_length_b 20.5709
_cell_length_c 9.9284
_cell_angle_alpha 90
_cell_angle_beta 95.786
_cell_angle_gamma 90
_space_group_name_H-M_alt 'P 1'
_space_group_name_Hall 'P 1'
loop_
    _symmetry_equiv_pos_as_xyz
    x,y,z
loop_
    _atom_site_label
    _atom_site_type_symbol
    _atom_site_fract_x
    _atom_site_fract_y
    _atom_site_fract_z
    _atom_site_occupancy
    Cu1      Cu       0.18983    0.73564    0.69532    1.000
    C1       C        0.01719    0.81783    0.21930    1.000
    C2       C        0.94050    0.85022    0.29030    1.000
    C3       C        0.94749    0.85433    0.43020    1.000
    H1       H        0.99840    0.83480    0.48150    1.000
    C4       C        0.87934    0.88721    0.49440    1.000
    H2       H        0.88400    0.88900    0.58840    1.000
    C5       C        0.80441    0.91741    0.41900    1.000
    C6       C        0.79395    0.91097    0.28030    1.000
    H3       H        0.74130    0.92860    0.22940    1.000
    C7       C        0.86265    0.87804    0.21720    1.000
    H4       H        0.85620    0.87460    0.12330    1.000
    C8       C        0.15440    0.87792    0.64380    1.000
    H5       H        0.19560    0.88040    0.57660    1.000
    C9       C        0.10150    0.92732    0.68460    1.000
    H6       H        0.10020    0.96980    0.65240    1.000
    C10      C        0.07530    0.84044    0.80060    1.000
    H7       H        0.05160    0.81300    0.86360    1.000
    C11      C        0.98390    0.93950    0.85760    1.000
    H8       H        0.94530    0.96760    0.79590    1.000
    H9       H        0.94180    0.90950    0.89770    1.000
    C12      C        0.03500    0.97891    0.96460    1.000
    H10      H        0.08060    0.00660    0.92560    1.000
    H11      H        0.06970    0.95060    0.03040    1.000
    C13      C        0.29389    0.63311    0.56570    1.000
    H12      H        0.31540    0.66280    0.50500    1.000
    C14      C        0.22451    0.59065    0.72820    1.000
    H13      H        0.18830    0.58640    0.80080    1.000
    C15      C        0.26998    0.54128    0.67130    1.000
    C16      C        0.47069    0.51960    0.54570    1.000
    H14      H        0.46370    0.49500    0.62740    1.000
    H15      H        0.50400    0.55960    0.57170    1.000
    C17      C        0.37356    0.53569    0.47660    1.000
    H16      H        0.38070    0.56310    0.39870    1.000
    H17      H        0.34240    0.49580    0.44420    1.000
    C18      C        0.35491    0.80349    0.67050    1.000
    C19      C        0.42157    0.84103    0.59040    1.000
    C20      C        0.49254    0.87904    0.65560    1.000
    H18      H        0.49970    0.88050    0.74970    1.000
    C21      C        0.55320    0.91497    0.58400    1.000
    H19      H        0.60080    0.94020    0.62950    1.000
    C22      C        0.54264    0.91308    0.44460    1.000
    C23      C        0.47194    0.87535    0.37730    1.000
    H20      H        0.46470    0.87420    0.28320    1.000
    C24      C        0.41237    0.83944    0.44970    1.000
    H21      H        0.36540    0.81380    0.40400    1.000
    C25      C        0.66995    0.98757    0.42370    1.000
    H22      H        0.69500    0.01420    0.35490    1.000
    H23      H        0.64240    0.01640    0.48650    1.000
    N1       N        0.13761    0.82323    0.71750    1.000
    N2       N        0.05042    0.90280    0.78210    1.000
    N3       N        0.23988    0.64796    0.66260    1.000
    N4       N        0.31338    0.56924    0.56710    1.000
    O1       O        0.09171    0.80135    0.29597    1.000
    O2       O        0.00676    0.80997    0.09610    1.000
    O3       O        0.74464    0.95239    0.49341    1.000
    O4       O        0.36471    0.80562    0.79470    1.000
    O5       O        0.28952    0.77260    0.59900    1.000
    O6       O        0.59850    0.94669    0.36203    1.000
    Cu2      Cu       0.81016    0.23564    0.80468    1.000
    C26      C        0.98281    0.31783    0.28070    1.000
    C27      C        0.05950    0.35022    0.20970    1.000
    C28      C        0.05251    0.35433    0.06980    1.000
    H24      H        0.00160    0.33480    0.01850    1.000
    C29      C        0.12066    0.38721    0.00560    1.000
    H25      H        0.11600    0.38900    0.91160    1.000
    C30      C        0.19559    0.41741    0.08100    1.000
    C31      C        0.20605    0.41097    0.21970    1.000
    H26      H        0.25870    0.42860    0.27060    1.000
    C32      C        0.13735    0.37804    0.28280    1.000
    H27      H        0.14380    0.37460    0.37670    1.000
    C33      C        0.84560    0.37792    0.85620    1.000
    H28      H        0.80440    0.38040    0.92340    1.000
    C34      C        0.89850    0.42732    0.81540    1.000
    H29      H        0.89980    0.46980    0.84760    1.000
    C35      C        0.92470    0.34044    0.69940    1.000
    H30      H        0.94840    0.31300    0.63640    1.000
    C36      C        0.01610    0.43950    0.64240    1.000
    H31      H        0.05470    0.46760    0.70410    1.000
    H32      H        0.05820    0.40950    0.60230    1.000
    C37      C        0.96500    0.47891    0.53540    1.000
    H33      H        0.91940    0.50660    0.57440    1.000
    H34      H        0.93030    0.45060    0.46960    1.000
    C38      C        0.70611    0.13311    0.93430    1.000
    H35      H        0.68460    0.16280    0.99500    1.000
    C39      C        0.77549    0.09065    0.77180    1.000
    H36      H        0.81170    0.08640    0.69920    1.000
    C40      C        0.73002    0.04128    0.82870    1.000
    C41      C        0.52931    0.01960    0.95430    1.000
    H37      H        0.53630    0.99500    0.87260    1.000
    H38      H        0.49600    0.05960    0.92830    1.000
    C42      C        0.62644    0.03569    0.02340    1.000
    H39      H        0.61930    0.06310    0.10130    1.000
    H40      H        0.65760    0.99580    0.05580    1.000
    C43      C        0.64509    0.30349    0.82950    1.000
    C44      C        0.57843    0.34103    0.90960    1.000
    C45      C        0.50746    0.37904    0.84440    1.000
    H41      H        0.50030    0.38050    0.75030    1.000
    C46      C        0.44680    0.41497    0.91600    1.000
    H42      H        0.39920    0.44020    0.87050    1.000
    C47      C        0.45736    0.41308    0.05540    1.000
    C48      C        0.52806    0.37535    0.12270    1.000
    H43      H        0.53530    0.37420    0.21680    1.000
    C49      C        0.58763    0.33944    0.05030    1.000
    H44      H        0.63460    0.31380    0.09600    1.000
    C50      C        0.33005    0.48757    0.07630    1.000
    H45      H        0.30500    0.51420    0.14510    1.000
    H46      H        0.35760    0.51640    0.01350    1.000
    N5       N        0.86239    0.32323    0.78250    1.000
    N6       N        0.94958    0.40280    0.71790    1.000
    N7       N        0.76012    0.14796    0.83740    1.000
    N8       N        0.68662    0.06924    0.93290    1.000
    O7       O        0.90829    0.30135    0.20403    1.000
    O8       O        0.99324    0.30997    0.40390    1.000
    O9       O        0.25536    0.45239    0.00659    1.000
    O10      O        0.63529    0.30562    0.70530    1.000
    O11      O        0.71048    0.27260    0.90100    1.000
    O12      O        0.40150    0.44669    0.13797    1.000
    Cu3      Cu       0.81016    0.26436    0.30468    1.000
    C51      C        0.98281    0.18217    0.78070    1.000
    C52      C        0.05950    0.14978    0.70970    1.000
    C53      C        0.05251    0.14567    0.56980    1.000
    H47      H        0.00160    0.16520    0.51850    1.000
    C54      C        0.12066    0.11279    0.50560    1.000
    H48      H        0.11600    0.11100    0.41160    1.000
    C55      C        0.19559    0.08259    0.58100    1.000
    C56      C        0.20605    0.08903    0.71970    1.000
    H49      H        0.25870    0.07140    0.77060    1.000
    C57      C        0.13735    0.12196    0.78280    1.000
    H50      H        0.14380    0.12540    0.87670    1.000
    C58      C        0.84560    0.12208    0.35620    1.000
    H51      H        0.80440    0.11960    0.42340    1.000
    C59      C        0.89850    0.07268    0.31540    1.000
    H52      H        0.89980    0.03020    0.34760    1.000
    C60      C        0.92470    0.15956    0.19940    1.000
    H53      H        0.94840    0.18700    0.13640    1.000
    C61      C        0.01610    0.06050    0.14240    1.000
    H54      H        0.05470    0.03240    0.20410    1.000
    H55      H        0.05820    0.09050    0.10230    1.000
    C62      C        0.96500    0.02109    0.03540    1.000
    H56      H        0.91940    0.99340    0.07440    1.000
    H57      H        0.93030    0.04940    0.96960    1.000
    C63      C        0.70611    0.36689    0.43430    1.000
    H58      H        0.68460    0.33720    0.49500    1.000
    C64      C        0.77549    0.40935    0.27180    1.000
    H59      H        0.81170    0.41360    0.19920    1.000
    C65      C        0.73002    0.45872    0.32870    1.000
    C66      C        0.52931    0.48040    0.45430    1.000
    H60      H        0.53630    0.50500    0.37260    1.000
    H61      H        0.49600    0.44040    0.42830    1.000
    C67      C        0.62644    0.46431    0.52340    1.000
    H62      H        0.61930    0.43690    0.60130    1.000
    H63      H        0.65760    0.50420    0.55580    1.000
    C68      C        0.64509    0.19651    0.32950    1.000
    C69      C        0.57843    0.15897    0.40960    1.000
    C70      C        0.50746    0.12096    0.34440    1.000
    H64      H        0.50030    0.11950    0.25030    1.000
    C71      C        0.44680    0.08503    0.41600    1.000
    H65      H        0.39920    0.05980    0.37050    1.000
    C72      C        0.45736    0.08692    0.55540    1.000
    C73      C        0.52806    0.12465    0.62270    1.000
    H66      H        0.53530    0.12580    0.71680    1.000
    C74      C        0.58763    0.16056    0.55030    1.000
    H67      H        0.63460    0.18620    0.59600    1.000
    C75      C        0.33005    0.01243    0.57630    1.000
    H68      H        0.30500    0.98580    0.64510    1.000
    H69      H        0.35760    0.98360    0.51350    1.000
    N9       N        0.86239    0.17677    0.28250    1.000
    N10      N        0.94958    0.09720    0.21790    1.000
    N11      N        0.76012    0.35204    0.33740    1.000
    N12      N        0.68662    0.43076    0.43290    1.000
    O13      O        0.90829    0.19865    0.70403    1.000
    O14      O        0.99324    0.19003    0.90390    1.000
    O15      O        0.25536    0.04761    0.50659    1.000
    O16      O        0.63529    0.19438    0.20530    1.000
    O17      O        0.71048    0.22740    0.40100    1.000
    O18      O        0.40150    0.05331    0.63797    1.000
    Cu4      Cu       0.18983    0.76436    0.19532    1.000
    C76      C        0.01719    0.68217    0.71930    1.000
    C77      C        0.94050    0.64978    0.79030    1.000
    C78      C        0.94749    0.64567    0.93020    1.000
    H70      H        0.99840    0.66520    0.98150    1.000
    C79      C        0.87934    0.61279    0.99440    1.000
    H71      H        0.88400    0.61100    0.08840    1.000
    C80      C        0.80441    0.58259    0.91900    1.000
    C81      C        0.79395    0.58903    0.78030    1.000
    H72      H        0.74130    0.57140    0.72940    1.000
    C82      C        0.86265    0.62196    0.71720    1.000
    H73      H        0.85620    0.62540    0.62330    1.000
    C83      C        0.15440    0.62208    0.14380    1.000
    H74      H        0.19560    0.61960    0.07660    1.000
    C84      C        0.10150    0.57268    0.18460    1.000
    H75      H        0.10020    0.53020    0.15240    1.000
    C85      C        0.07530    0.65956    0.30060    1.000
    H76      H        0.05160    0.68700    0.36360    1.000
    C86      C        0.98390    0.56050    0.35760    1.000
    H77      H        0.94530    0.53240    0.29590    1.000
    H78      H        0.94180    0.59050    0.39770    1.000
    C87      C        0.03500    0.52109    0.46460    1.000
    H79      H        0.08060    0.49340    0.42560    1.000
    H80      H        0.06970    0.54940    0.53040    1.000
    C88      C        0.29389    0.86689    0.06570    1.000
    H81      H        0.31540    0.83720    0.00500    1.000
    C89      C        0.22451    0.90935    0.22820    1.000
    H82      H        0.18830    0.91360    0.30080    1.000
    C90      C        0.26998    0.95872    0.17130    1.000
    C91      C        0.47069    0.98040    0.04570    1.000
    H83      H        0.46370    0.00500    0.12740    1.000
    H84      H        0.50400    0.94040    0.07170    1.000
    C92      C        0.37356    0.96431    0.97660    1.000
    H85      H        0.38070    0.93690    0.89870    1.000
    H86      H        0.34240    0.00420    0.94420    1.000
    C93      C        0.35491    0.69651    0.17050    1.000
    C94      C        0.42157    0.65897    0.09040    1.000
    C95      C        0.49254    0.62096    0.15560    1.000
    H87      H        0.49970    0.61950    0.24970    1.000
    C96      C        0.55320    0.58503    0.08400    1.000
    H88      H        0.60080    0.55980    0.12950    1.000
    C97      C        0.54264    0.58692    0.94460    1.000
    C98      C        0.47194    0.62465    0.87730    1.000
    H89      H        0.46470    0.62580    0.78320    1.000
    C99      C        0.41237    0.66056    0.94970    1.000
    H90      H        0.36540    0.68620    0.90400    1.000
    C100     C        0.66995    0.51243    0.92370    1.000
    H91      H        0.69500    0.48580    0.85490    1.000
    H92      H        0.64240    0.48360    0.98650    1.000
    N13      N        0.13761    0.67677    0.21750    1.000
    N14      N        0.05042    0.59720    0.28210    1.000
    N15      N        0.23988    0.85204    0.16260    1.000
    N16      N        0.31338    0.93076    0.06710    1.000
    O19      O        0.09171    0.69865    0.79597    1.000
    O20      O        0.00676    0.69003    0.59610    1.000
    O21      O        0.74464    0.54761    0.99341    1.000
    O22      O        0.36471    0.69438    0.29470    1.000
    O23      O        0.28952    0.72740    0.09900    1.000
    O24      O        0.59850    0.55331    0.86203    1.000
