# CIF file generated by openbabel 3.1.0, see https://openbabel.org
data_I
_chemical_name_common 'image0'
_cell_length_a 28.612
_cell_length_b 9.3899
_cell_length_c 9.2741
_cell_angle_alpha 90
_cell_angle_beta 92.657
_cell_angle_gamma 90
_space_group_name_H-M_alt 'P 1'
_space_group_name_Hall 'P 1'
loop_
    _symmetry_equiv_pos_as_xyz
    x,y,z
loop_
    _atom_site_label
    _atom_site_type_symbol
    _atom_site_fract_x
    _atom_site_fract_y
    _atom_site_fract_z
    _atom_site_occupancy
    Cu1      Cu       0.30754    0.66933    0.12004    1.000
    C1       C        0.38060    0.98830    0.89780    1.000
    H1       H        0.37300    0.07740    0.85690    1.000
    C2       C        0.34730    0.91110    0.96320    1.000
    H2       H        0.31680    0.94850    0.96440    1.000
    C3       C        0.43490    0.80400    0.95740    1.000
    H3       H        0.46490    0.76350    0.95660    1.000
    N1       N        0.35573    0.78450    0.02600    1.000
    C4       C        0.42610    0.93510    0.89160    1.000
    C5       C        0.39930    0.73350    0.02380    1.000
    H4       H        0.40600    0.64600    0.06930    1.000
    C6       C        0.46320    0.01970    0.81960    1.000
    H5       H        0.47870    0.08210    0.89170    1.000
    H6       H        0.44800    0.08070    0.74560    1.000
    H7       H        0.48480    0.87000    0.67760    1.000
    N2       N        0.27842    0.60610    0.92770    1.000
    N3       N        0.24377    0.65510    0.84080    1.000
    N4       N        0.24145    0.57950    0.72030    1.000
    C7       C        0.29680    0.49810    0.85960    1.000
    N5       N        0.27503    0.47990    0.73100    1.000
    C8       C        0.33780    0.40540    0.90080    1.000
    O1       O        0.34730    0.31840    0.80170    1.000
    O2       O        0.35748    0.42030    0.02040    1.000
    Cu2      Cu       0.80754    0.16933    0.12004    1.000
    C9       C        0.88060    0.48830    0.89780    1.000
    H8       H        0.87300    0.57740    0.85690    1.000
    C10      C        0.84730    0.41110    0.96320    1.000
    H9       H        0.81680    0.44850    0.96440    1.000
    C11      C        0.93490    0.30400    0.95740    1.000
    H10      H        0.96490    0.26350    0.95660    1.000
    N6       N        0.85573    0.28450    0.02600    1.000
    C12      C        0.92610    0.43510    0.89160    1.000
    C13      C        0.89930    0.23350    0.02380    1.000
    H11      H        0.90600    0.14600    0.06930    1.000
    C14      C        0.96320    0.51970    0.81960    1.000
    H12      H        0.97870    0.58210    0.89170    1.000
    H13      H        0.94800    0.58070    0.74560    1.000
    H14      H        0.98480    0.37000    0.67760    1.000
    N7       N        0.77842    0.10610    0.92770    1.000
    N8       N        0.74377    0.15510    0.84080    1.000
    N9       N        0.74145    0.07950    0.72030    1.000
    C15      C        0.79680    0.99810    0.85960    1.000
    N10      N        0.77503    0.97990    0.73100    1.000
    C16      C        0.83780    0.90540    0.90080    1.000
    O3       O        0.84730    0.81840    0.80170    1.000
    O4       O        0.85748    0.92030    0.02040    1.000
    Cu3      Cu       0.69246    0.66933    0.37996    1.000
    C17      C        0.61940    0.98830    0.60220    1.000
    H15      H        0.62700    0.07740    0.64310    1.000
    C18      C        0.65270    0.91110    0.53680    1.000
    H16      H        0.68320    0.94850    0.53560    1.000
    C19      C        0.56510    0.80400    0.54260    1.000
    H17      H        0.53510    0.76350    0.54340    1.000
    N11      N        0.64427    0.78450    0.47400    1.000
    C20      C        0.57390    0.93510    0.60840    1.000
    C21      C        0.60070    0.73350    0.47620    1.000
    H18      H        0.59400    0.64600    0.43070    1.000
    C22      C        0.53680    0.01970    0.68040    1.000
    H19      H        0.52130    0.08210    0.60830    1.000
    H20      H        0.55200    0.08070    0.75440    1.000
    H21      H        0.51520    0.87000    0.82240    1.000
    N12      N        0.72158    0.60610    0.57230    1.000
    N13      N        0.75623    0.65510    0.65920    1.000
    N14      N        0.75855    0.57950    0.77970    1.000
    C23      C        0.70320    0.49810    0.64040    1.000
    N15      N        0.72497    0.47990    0.76900    1.000
    C24      C        0.66220    0.40540    0.59920    1.000
    O5       O        0.65270    0.31840    0.69830    1.000
    O6       O        0.64252    0.42030    0.47960    1.000
    Cu4      Cu       0.19246    0.16933    0.37996    1.000
    C25      C        0.11940    0.48830    0.60220    1.000
    H22      H        0.12700    0.57740    0.64310    1.000
    C26      C        0.15270    0.41110    0.53680    1.000
    H23      H        0.18320    0.44850    0.53560    1.000
    C27      C        0.06510    0.30400    0.54260    1.000
    H24      H        0.03510    0.26350    0.54340    1.000
    N16      N        0.14427    0.28450    0.47400    1.000
    C28      C        0.07390    0.43510    0.60840    1.000
    C29      C        0.10070    0.23350    0.47620    1.000
    H25      H        0.09400    0.14600    0.43070    1.000
    C30      C        0.03680    0.51970    0.68040    1.000
    H26      H        0.02130    0.58210    0.60830    1.000
    H27      H        0.05200    0.58070    0.75440    1.000
    H28      H        0.01520    0.37000    0.82240    1.000
    N17      N        0.22158    0.10610    0.57230    1.000
    N18      N        0.25623    0.15510    0.65920    1.000
    N19      N        0.25855    0.07950    0.77970    1.000
    C31      C        0.20320    0.99810    0.64040    1.000
    N20      N        0.22497    0.97990    0.76900    1.000
    C32      C        0.16220    0.90540    0.59920    1.000
    O7       O        0.15270    0.81840    0.69830    1.000
    O8       O        0.14252    0.92030    0.47960    1.000
    Cu5      Cu       0.69246    0.33067    0.87996    1.000
    C33      C        0.61940    0.01170    0.10220    1.000
    H29      H        0.62700    0.92260    0.14310    1.000
    C34      C        0.65270    0.08890    0.03680    1.000
    H30      H        0.68320    0.05150    0.03560    1.000
    C35      C        0.56510    0.19600    0.04260    1.000
    H31      H        0.53510    0.23650    0.04340    1.000
    N21      N        0.64427    0.21550    0.97400    1.000
    C36      C        0.57390    0.06490    0.10840    1.000
    C37      C        0.60070    0.26650    0.97620    1.000
    H32      H        0.59400    0.35400    0.93070    1.000
    C38      C        0.53680    0.98030    0.18040    1.000
    H33      H        0.52130    0.91790    0.10830    1.000
    H34      H        0.55200    0.91930    0.25440    1.000
    H35      H        0.51520    0.13000    0.32240    1.000
    N22      N        0.72158    0.39390    0.07230    1.000
    N23      N        0.75623    0.34490    0.15920    1.000
    N24      N        0.75855    0.42050    0.27970    1.000
    C39      C        0.70320    0.50190    0.14040    1.000
    N25      N        0.72497    0.52010    0.26900    1.000
    C40      C        0.66220    0.59460    0.09920    1.000
    O9       O        0.65270    0.68160    0.19830    1.000
    O10      O        0.64252    0.57970    0.97960    1.000
    Cu6      Cu       0.19246    0.83067    0.87996    1.000
    C41      C        0.11940    0.51170    0.10220    1.000
    H36      H        0.12700    0.42260    0.14310    1.000
    C42      C        0.15270    0.58890    0.03680    1.000
    H37      H        0.18320    0.55150    0.03560    1.000
    C43      C        0.06510    0.69600    0.04260    1.000
    H38      H        0.03510    0.73650    0.04340    1.000
    N26      N        0.14427    0.71550    0.97400    1.000
    C44      C        0.07390    0.56490    0.10840    1.000
    C45      C        0.10070    0.76650    0.97620    1.000
    H39      H        0.09400    0.85400    0.93070    1.000
    C46      C        0.03680    0.48030    0.18040    1.000
    H40      H        0.02130    0.41790    0.10830    1.000
    H41      H        0.05200    0.41930    0.25440    1.000
    H42      H        0.01520    0.63000    0.32240    1.000
    N27      N        0.22158    0.89390    0.07230    1.000
    N28      N        0.25623    0.84490    0.15920    1.000
    N29      N        0.25855    0.92050    0.27970    1.000
    C47      C        0.20320    0.00190    0.14040    1.000
    N30      N        0.22497    0.02010    0.26900    1.000
    C48      C        0.16220    0.09460    0.09920    1.000
    O11      O        0.15270    0.18160    0.19830    1.000
    O12      O        0.14252    0.07970    0.97960    1.000
    Cu7      Cu       0.30754    0.33067    0.62004    1.000
    C49      C        0.38060    0.01170    0.39780    1.000
    H43      H        0.37300    0.92260    0.35690    1.000
    C50      C        0.34730    0.08890    0.46320    1.000
    H44      H        0.31680    0.05150    0.46440    1.000
    C51      C        0.43490    0.19600    0.45740    1.000
    H45      H        0.46490    0.23650    0.45660    1.000
    N31      N        0.35573    0.21550    0.52600    1.000
    C52      C        0.42610    0.06490    0.39160    1.000
    C53      C        0.39930    0.26650    0.52380    1.000
    H46      H        0.40600    0.35400    0.56930    1.000
    C54      C        0.46320    0.98030    0.31960    1.000
    H47      H        0.47870    0.91790    0.39170    1.000
    H48      H        0.44800    0.91930    0.24560    1.000
    H49      H        0.48480    0.13000    0.17760    1.000
    N32      N        0.27842    0.39390    0.42770    1.000
    N33      N        0.24377    0.34490    0.34080    1.000
    N34      N        0.24145    0.42050    0.22030    1.000
    C55      C        0.29680    0.50190    0.35960    1.000
    N35      N        0.27503    0.52010    0.23100    1.000
    C56      C        0.33780    0.59460    0.40080    1.000
    O13      O        0.34730    0.68160    0.30170    1.000
    O14      O        0.35748    0.57970    0.52040    1.000
    Cu8      Cu       0.80754    0.83067    0.62004    1.000
    C57      C        0.88060    0.51170    0.39780    1.000
    H50      H        0.87300    0.42260    0.35690    1.000
    C58      C        0.84730    0.58890    0.46320    1.000
    H51      H        0.81680    0.55150    0.46440    1.000
    C59      C        0.93490    0.69600    0.45740    1.000
    H52      H        0.96490    0.73650    0.45660    1.000
    N36      N        0.85573    0.71550    0.52600    1.000
    C60      C        0.92610    0.56490    0.39160    1.000
    C61      C        0.89930    0.76650    0.52380    1.000
    H53      H        0.90600    0.85400    0.56930    1.000
    C62      C        0.96320    0.48030    0.31960    1.000
    H54      H        0.97870    0.41790    0.39170    1.000
    H55      H        0.94800    0.41930    0.24560    1.000
    H56      H        0.98480    0.63000    0.17760    1.000
    N37      N        0.77842    0.89390    0.42770    1.000
    N38      N        0.74377    0.84490    0.34080    1.000
    N39      N        0.74145    0.92050    0.22030    1.000
    C63      C        0.79680    0.00190    0.35960    1.000
    N40      N        0.77503    0.02010    0.23100    1.000
    C64      C        0.83780    0.09460    0.40080    1.000
    O15      O        0.84730    0.18160    0.30170    1.000
    O16      O        0.85748    0.07970    0.52040    1.000
    C65      C        0.50000    0.93090    0.75000    1.000
    C66      C        0.00000    0.43090    0.75000    1.000
    C67      C        0.50000    0.06910    0.25000    1.000
    C68      C        0.00000    0.56910    0.25000    1.000
