# CIF file generated by openbabel 3.1.0, see https://openbabel.org
data_I
_chemical_name_common 'GAZZIS04_charged'
_cell_length_a 17.3712
_cell_length_b 17.3712
_cell_length_c 26.785
_cell_angle_alpha 93.3913
_cell_angle_beta 93.3913
_cell_angle_gamma 111.133
_space_group_name_H-M_alt 'P 1'
_space_group_name_Hall 'P 1'
loop_
    _symmetry_equiv_pos_as_xyz
    x,y,z
loop_
    _atom_site_label
    _atom_site_type_symbol
    _atom_site_fract_x
    _atom_site_fract_y
    _atom_site_fract_z
    _atom_site_occupancy
    In1      In       0.37202    0.85578    0.88457    1.000
    In2      In       0.85578    0.37202    0.38457    1.000
    H1       H        0.21140    0.76280    0.02360    1.000
    H2       H        0.09420    0.68380    0.05980    1.000
    H3       H        0.96990    0.62090    0.92370    1.000
    H4       H        0.08640    0.70180    0.88800    1.000
    H5       H        0.79800    0.34220    0.21150    1.000
    H6       H        0.79410    0.37430    0.12960    1.000
    H7       H        0.98150    0.59190    0.16740    1.000
    H8       H        0.98390    0.56090    0.24990    1.000
    H9       H        0.39150    0.13950    0.86900    1.000
    H10      H        0.46250    0.28110    0.88320    1.000
    H11      H        0.59760    0.24180    0.99950    1.000
    H12      H        0.53060    0.10200    0.98310    1.000
    H13      H        0.57620    0.76360    0.95590    1.000
    H14      H        0.63330    0.67010    0.97810    1.000
    H15      H        0.45400    0.48960    0.89260    1.000
    H16      H        0.39390    0.58530    0.86840    1.000
    H17      H        0.75780    0.44680    0.07290    1.000
    H18      H        0.85990    0.58330    0.96030    1.000
    H19      H        0.00200    0.57820    0.08350    1.000
    H20      H        0.70910    0.59490    0.97310    1.000
    H21      H        0.68980    0.35940    0.98650    1.000
    H22      H        0.49730    0.40650    0.92260    1.000
    H23      H        0.76280    0.21140    0.52360    1.000
    H24      H        0.68380    0.09420    0.55980    1.000
    H25      H        0.62090    0.96990    0.42370    1.000
    H26      H        0.70180    0.08640    0.38800    1.000
    H27      H        0.34220    0.79800    0.71150    1.000
    H28      H        0.37430    0.79410    0.62960    1.000
    H29      H        0.59190    0.98150    0.66740    1.000
    H30      H        0.56090    0.98390    0.74990    1.000
    H31      H        0.13950    0.39150    0.36900    1.000
    H32      H        0.28110    0.46250    0.38320    1.000
    H33      H        0.24180    0.59760    0.49950    1.000
    H34      H        0.10200    0.53060    0.48310    1.000
    H35      H        0.76360    0.57620    0.45590    1.000
    H36      H        0.67010    0.63330    0.47810    1.000
    H37      H        0.48960    0.45400    0.39260    1.000
    H38      H        0.58530    0.39390    0.36840    1.000
    H39      H        0.44680    0.75780    0.57290    1.000
    H40      H        0.58330    0.85990    0.46030    1.000
    H41      H        0.57820    0.00200    0.58350    1.000
    H42      H        0.59490    0.70910    0.47310    1.000
    H43      H        0.35940    0.68980    0.48650    1.000
    H44      H        0.40650    0.49730    0.42260    1.000
    C1       C        0.16093    0.74093    0.95270    1.000
    C2       C        0.16220    0.73440    0.00315    1.000
    C3       C        0.09213    0.68667    0.02487    1.000
    C4       C        0.01847    0.64281    0.99525    1.000
    C5       C        0.01875    0.64985    0.94445    1.000
    C6       C        0.08834    0.69806    0.92284    1.000
    C7       C        0.89048    0.44892    0.23904    1.000
    C8       C        0.83461    0.39325    0.20259    1.000
    C9       C        0.83256    0.41244    0.15378    1.000
    C10      C        0.88665    0.48779    0.13928    1.000
    C11      C        0.94346    0.54164    0.17630    1.000
    C12      C        0.94542    0.52318    0.22551    1.000
    C13      C        0.45629    0.10623    0.92390    1.000
    C14      C        0.43462    0.16052    0.89477    1.000
    C15      C        0.47627    0.24505    0.90364    1.000
    C16      C        0.53891    0.27747    0.94291    1.000
    C17      C        0.55680    0.22148    0.97237    1.000
    C18      C        0.51667    0.13809    0.96279    1.000
    C19      C        0.48146    0.68402    0.90960    1.000
    C20      C        0.55685    0.57097    0.93289    1.000
    C21      C        0.55210    0.70830    0.94210    1.000
    C22      C        0.58700    0.65280    0.95430    1.000
    C23      C        0.48080    0.54600    0.90350    1.000
    C24      C        0.44280    0.60240    0.88980    1.000
    C25      C        0.88080    0.51092    0.08742    1.000
    C26      C        0.80447    0.48369    0.05949    1.000
    C27      C        0.79584    0.51002    0.01199    1.000
    C28      C        0.86562    0.56386    0.99177    1.000
    C29      C        0.94386    0.58886    0.01818    1.000
    C30      C        0.94971    0.56169    0.06560    1.000
    C31      C        0.59618    0.51066    0.94636    1.000
    C32      C        0.67743    0.53785    0.96866    1.000
    C33      C        0.71165    0.48143    0.98430    1.000
    C34      C        0.66605    0.39723    0.97601    1.000
    C35      C        0.58629    0.36757    0.95262    1.000
    C36      C        0.55154    0.42552    0.93812    1.000
    C37      C        0.23714    0.78934    0.92907    1.000
    C38      C        0.89023    0.43137    0.29406    1.000
    C39      C        0.41742    0.01478    0.91143    1.000
    C40      C        0.44043    0.74403    0.89911    1.000
    C41      C        0.74093    0.16093    0.45270    1.000
    C42      C        0.73440    0.16220    0.50315    1.000
    C43      C        0.68667    0.09213    0.52487    1.000
    C44      C        0.64281    0.01847    0.49525    1.000
    C45      C        0.64985    0.01875    0.44445    1.000
    C46      C        0.69806    0.08834    0.42284    1.000
    C47      C        0.44892    0.89048    0.73904    1.000
    C48      C        0.39325    0.83461    0.70259    1.000
    C49      C        0.41244    0.83256    0.65378    1.000
    C50      C        0.48779    0.88665    0.63928    1.000
    C51      C        0.54164    0.94346    0.67630    1.000
    C52      C        0.52318    0.94542    0.72551    1.000
    C53      C        0.10623    0.45629    0.42390    1.000
    C54      C        0.16052    0.43462    0.39477    1.000
    C55      C        0.24505    0.47627    0.40364    1.000
    C56      C        0.27747    0.53891    0.44291    1.000
    C57      C        0.22148    0.55680    0.47237    1.000
    C58      C        0.13809    0.51667    0.46279    1.000
    C59      C        0.68402    0.48146    0.40960    1.000
    C60      C        0.57097    0.55685    0.43289    1.000
    C61      C        0.70830    0.55210    0.44210    1.000
    C62      C        0.65280    0.58700    0.45430    1.000
    C63      C        0.54600    0.48080    0.40350    1.000
    C64      C        0.60240    0.44280    0.38980    1.000
    C65      C        0.51092    0.88080    0.58742    1.000
    C66      C        0.48369    0.80447    0.55949    1.000
    C67      C        0.51002    0.79584    0.51199    1.000
    C68      C        0.56386    0.86562    0.49177    1.000
    C69      C        0.58886    0.94386    0.51818    1.000
    C70      C        0.56169    0.94971    0.56560    1.000
    C71      C        0.51066    0.59618    0.44636    1.000
    C72      C        0.53785    0.67743    0.46866    1.000
    C73      C        0.48143    0.71165    0.48430    1.000
    C74      C        0.39723    0.66605    0.47601    1.000
    C75      C        0.36757    0.58629    0.45262    1.000
    C76      C        0.42552    0.55154    0.43812    1.000
    C77      C        0.78934    0.23714    0.42907    1.000
    C78      C        0.43137    0.89023    0.79406    1.000
    C79      C        0.01478    0.41742    0.41143    1.000
    C80      C        0.74403    0.44043    0.39911    1.000
    O1       O        0.23477    0.79599    0.88268    1.000
    O2       O        0.30530    0.82186    0.95554    1.000
    O3       O        0.83925    0.36249    0.30437    1.000
    O4       O        0.93858    0.48382    0.32607    1.000
    O5       O        0.35452    0.98296    0.88055    1.000
    O6       O        0.45174    0.96932    0.93112    1.000
    O7       O        0.48105    0.82049    0.90587    1.000
    O8       O        0.36558    0.71894    0.88428    1.000
    O9       O        0.79599    0.23477    0.38268    1.000
    O10      O        0.82186    0.30530    0.45554    1.000
    O11      O        0.36249    0.83925    0.80437    1.000
    O12      O        0.48382    0.93858    0.82607    1.000
    O13      O        0.98296    0.35452    0.38055    1.000
    O14      O        0.96932    0.45174    0.43112    1.000
    O15      O        0.82049    0.48105    0.40587    1.000
    O16      O        0.71894    0.36558    0.38428    1.000
    In3      In       0.14422    0.62798    0.61543    1.000
    In4      In       0.62798    0.14422    0.11543    1.000
    H45      H        0.23720    0.78860    0.47640    1.000
    H46      H        0.31620    0.90580    0.44020    1.000
    H47      H        0.37910    0.03010    0.57630    1.000
    H48      H        0.29820    0.91360    0.61200    1.000
    H49      H        0.65780    0.20200    0.28850    1.000
    H50      H        0.62570    0.20590    0.37040    1.000
    H51      H        0.40810    0.01850    0.33260    1.000
    H52      H        0.43910    0.01610    0.25010    1.000
    H53      H        0.86050    0.60850    0.63100    1.000
    H54      H        0.71890    0.53750    0.61680    1.000
    H55      H        0.75820    0.40240    0.50050    1.000
    H56      H        0.89800    0.46940    0.51690    1.000
    H57      H        0.23640    0.42380    0.54410    1.000
    H58      H        0.32990    0.36670    0.52190    1.000
    H59      H        0.51040    0.54600    0.60740    1.000
    H60      H        0.41470    0.60610    0.63160    1.000
    H61      H        0.55320    0.24220    0.42710    1.000
    H62      H        0.41670    0.14010    0.53970    1.000
    H63      H        0.42180    0.99800    0.41650    1.000
    H64      H        0.40510    0.29090    0.52690    1.000
    H65      H        0.64060    0.31020    0.51350    1.000
    H66      H        0.59350    0.50270    0.57740    1.000
    H67      H        0.78860    0.23720    0.97640    1.000
    H68      H        0.90580    0.31620    0.94020    1.000
    H69      H        0.03010    0.37910    0.07630    1.000
    H70      H        0.91360    0.29820    0.11200    1.000
    H71      H        0.20200    0.65780    0.78850    1.000
    H72      H        0.20590    0.62570    0.87040    1.000
    H73      H        0.01850    0.40810    0.83260    1.000
    H74      H        0.01610    0.43910    0.75010    1.000
    H75      H        0.60850    0.86050    0.13100    1.000
    H76      H        0.53750    0.71890    0.11680    1.000
    H77      H        0.40240    0.75820    0.00050    1.000
    H78      H        0.46940    0.89800    0.01690    1.000
    H79      H        0.42380    0.23640    0.04410    1.000
    H80      H        0.36670    0.32990    0.02190    1.000
    H81      H        0.54600    0.51040    0.10740    1.000
    H82      H        0.60610    0.41470    0.13160    1.000
    H83      H        0.24220    0.55320    0.92710    1.000
    H84      H        0.14010    0.41670    0.03970    1.000
    H85      H        0.99800    0.42180    0.91650    1.000
    H86      H        0.29090    0.40510    0.02690    1.000
    H87      H        0.31020    0.64060    0.01350    1.000
    H88      H        0.50270    0.59350    0.07740    1.000
    C81      C        0.25907    0.83907    0.54730    1.000
    C82      C        0.26560    0.83780    0.49685    1.000
    C83      C        0.31333    0.90787    0.47513    1.000
    C84      C        0.35719    0.98153    0.50475    1.000
    C85      C        0.35015    0.98125    0.55555    1.000
    C86      C        0.30194    0.91166    0.57716    1.000
    C87      C        0.55108    0.10952    0.26096    1.000
    C88      C        0.60675    0.16539    0.29741    1.000
    C89      C        0.58756    0.16744    0.34622    1.000
    C90      C        0.51221    0.11335    0.36072    1.000
    C91      C        0.45836    0.05654    0.32370    1.000
    C92      C        0.47682    0.05458    0.27449    1.000
    C93      C        0.89377    0.54371    0.57610    1.000
    C94      C        0.83948    0.56538    0.60523    1.000
    C95      C        0.75495    0.52373    0.59636    1.000
    C96      C        0.72253    0.46109    0.55709    1.000
    C97      C        0.77852    0.44320    0.52763    1.000
    C98      C        0.86191    0.48333    0.53721    1.000
    C99      C        0.31598    0.51854    0.59040    1.000
    C100     C        0.42903    0.44315    0.56711    1.000
    C101     C        0.29170    0.44790    0.55790    1.000
    C102     C        0.34720    0.41300    0.54570    1.000
    C103     C        0.45400    0.51920    0.59650    1.000
    C104     C        0.39760    0.55720    0.61020    1.000
    C105     C        0.48908    0.11920    0.41258    1.000
    C106     C        0.51631    0.19553    0.44051    1.000
    C107     C        0.48998    0.20416    0.48801    1.000
    C108     C        0.43614    0.13438    0.50823    1.000
    C109     C        0.41114    0.05614    0.48182    1.000
    C110     C        0.43831    0.05029    0.43440    1.000
    C111     C        0.48934    0.40382    0.55364    1.000
    C112     C        0.46215    0.32257    0.53134    1.000
    C113     C        0.51857    0.28835    0.51570    1.000
    C114     C        0.60277    0.33395    0.52399    1.000
    C115     C        0.63243    0.41371    0.54738    1.000
    C116     C        0.57448    0.44846    0.56188    1.000
    C117     C        0.21066    0.76286    0.57093    1.000
    C118     C        0.56863    0.10977    0.20594    1.000
    C119     C        0.98522    0.58258    0.58857    1.000
    C120     C        0.25597    0.55957    0.60089    1.000
    C121     C        0.83907    0.25907    0.04730    1.000
    C122     C        0.83780    0.26560    0.99685    1.000
    C123     C        0.90787    0.31333    0.97513    1.000
    C124     C        0.98153    0.35719    0.00475    1.000
    C125     C        0.98125    0.35015    0.05555    1.000
    C126     C        0.91166    0.30194    0.07716    1.000
    C127     C        0.10952    0.55108    0.76096    1.000
    C128     C        0.16539    0.60675    0.79741    1.000
    C129     C        0.16744    0.58756    0.84622    1.000
    C130     C        0.11335    0.51221    0.86072    1.000
    C131     C        0.05654    0.45836    0.82370    1.000
    C132     C        0.05458    0.47682    0.77449    1.000
    C133     C        0.54371    0.89377    0.07610    1.000
    C134     C        0.56538    0.83948    0.10523    1.000
    C135     C        0.52373    0.75495    0.09636    1.000
    C136     C        0.46109    0.72253    0.05709    1.000
    C137     C        0.44320    0.77852    0.02763    1.000
    C138     C        0.48333    0.86191    0.03721    1.000
    C139     C        0.51854    0.31598    0.09040    1.000
    C140     C        0.44315    0.42903    0.06711    1.000
    C141     C        0.44790    0.29170    0.05790    1.000
    C142     C        0.41300    0.34720    0.04570    1.000
    C143     C        0.51920    0.45400    0.09650    1.000
    C144     C        0.55720    0.39760    0.11020    1.000
    C145     C        0.11920    0.48908    0.91258    1.000
    C146     C        0.19553    0.51631    0.94051    1.000
    C147     C        0.20416    0.48998    0.98801    1.000
    C148     C        0.13438    0.43614    0.00823    1.000
    C149     C        0.05614    0.41114    0.98182    1.000
    C150     C        0.05029    0.43831    0.93440    1.000
    C151     C        0.40382    0.48934    0.05364    1.000
    C152     C        0.32257    0.46215    0.03134    1.000
    C153     C        0.28835    0.51857    0.01570    1.000
    C154     C        0.33395    0.60277    0.02399    1.000
    C155     C        0.41371    0.63243    0.04738    1.000
    C156     C        0.44846    0.57448    0.06188    1.000
    C157     C        0.76286    0.21066    0.07093    1.000
    C158     C        0.10977    0.56863    0.70594    1.000
    C159     C        0.58258    0.98522    0.08857    1.000
    C160     C        0.55957    0.25597    0.10089    1.000
    O17      O        0.20401    0.76523    0.61732    1.000
    O18      O        0.17814    0.69470    0.54446    1.000
    O19      O        0.63751    0.16075    0.19563    1.000
    O20      O        0.51618    0.06142    0.17393    1.000
    O21      O        0.01704    0.64548    0.61945    1.000
    O22      O        0.03068    0.54826    0.56888    1.000
    O23      O        0.17951    0.51895    0.59413    1.000
    O24      O        0.28106    0.63442    0.61572    1.000
    O25      O        0.76523    0.20401    0.11732    1.000
    O26      O        0.69470    0.17814    0.04446    1.000
    O27      O        0.16075    0.63751    0.69563    1.000
    O28      O        0.06142    0.51618    0.67393    1.000
    O29      O        0.64548    0.01704    0.11945    1.000
    O30      O        0.54826    0.03068    0.06888    1.000
    O31      O        0.51895    0.17951    0.09413    1.000
    O32      O        0.63442    0.28106    0.11572    1.000
    H89      H        0.63680    0.95100    0.88700    1.000
    H90      H        0.56600    0.96880    0.90500    1.000
    H91      H        0.63040    0.93160    0.96940    1.000
    H92      H        0.71340    0.00520    0.96060    1.000
    H93      H        0.63720    0.02460    0.97990    1.000
    H94      H        0.63230    0.06890    0.85640    1.000
    H95      H        0.64210    0.10770    0.91250    1.000
    H96      H        0.71560    0.08660    0.89040    1.000
    C161     C        0.65340    0.98700    0.95850    1.000
    C162     C        0.65590    0.06930    0.89020    1.000
    N1       N        0.62222    0.98658    0.90717    1.000
    H97      H        0.04900    0.36320    0.61300    1.000
    H98      H        0.03120    0.43400    0.59500    1.000
    H99      H        0.06840    0.36960    0.53060    1.000
    H100     H        0.99480    0.28660    0.53940    1.000
    H101     H        0.97540    0.36280    0.52010    1.000
    H102     H        0.93110    0.36770    0.64360    1.000
    H103     H        0.89230    0.35790    0.58750    1.000
    H104     H        0.91340    0.28440    0.60960    1.000
    C163     C        0.01300    0.34660    0.54150    1.000
    C164     C        0.93070    0.34410    0.60980    1.000
    N2       N        0.01342    0.37778    0.59283    1.000
    H105     H        0.36320    0.04900    0.11300    1.000
    H106     H        0.43400    0.03120    0.09500    1.000
    H107     H        0.36960    0.06840    0.03060    1.000
    H108     H        0.28660    0.99480    0.03940    1.000
    H109     H        0.36280    0.97540    0.02010    1.000
    H110     H        0.36770    0.93110    0.14360    1.000
    H111     H        0.35790    0.89230    0.08750    1.000
    H112     H        0.28440    0.91340    0.10960    1.000
    C165     C        0.34660    0.01300    0.04150    1.000
    C166     C        0.34410    0.93070    0.10980    1.000
    N3       N        0.37778    0.01342    0.09283    1.000
    H113     H        0.95100    0.63680    0.38700    1.000
    H114     H        0.96880    0.56600    0.40500    1.000
    H115     H        0.93160    0.63040    0.46940    1.000
    H116     H        0.00520    0.71340    0.46060    1.000
    H117     H        0.02460    0.63720    0.47990    1.000
    H118     H        0.06890    0.63230    0.35640    1.000
    H119     H        0.10770    0.64210    0.41250    1.000
    H120     H        0.08660    0.71560    0.39040    1.000
    C167     C        0.98700    0.65340    0.45850    1.000
    C168     C        0.06930    0.65590    0.39020    1.000
    N4       N        0.98658    0.62222    0.40717    1.000
