# CIF file generated by openbabel 3.1.0, see https://openbabel.org
data_I
_chemical_name_common 'FEYQIK_clean'
_cell_length_a 8.655
_cell_length_b 9.9366
_cell_length_c 11.717
_cell_angle_alpha 74.71
_cell_angle_beta 69.795
_cell_angle_gamma 85.959
_space_group_name_H-M_alt 'P 1'
_space_group_name_Hall 'P 1'
loop_
    _symmetry_equiv_pos_as_xyz
    x,y,z
loop_
    _atom_site_label
    _atom_site_type_symbol
    _atom_site_fract_x
    _atom_site_fract_y
    _atom_site_fract_z
    _atom_site_occupancy
    Pr1      Pr       0.74555    0.97761    0.01192    1.000
    Pr2      Pr       0.25445    0.02239    0.98808    1.000
    H1       H        0.26560    0.97540    0.67210    1.000
    H2       H        0.24580    0.81350    0.72540    1.000
    H3       H        0.09510    0.79840    0.60280    1.000
    H4       H        0.08570    0.96140    0.56040    1.000
    H5       H        0.37420    0.97290    0.45710    1.000
    H6       H        0.37620    0.80960    0.49340    1.000
    H7       H        0.20450    0.95950    0.33650    1.000
    H8       H        0.23380    0.79870    0.36240    1.000
    H9       H        0.75490    0.48330    0.21830    1.000
    H10      H        0.72090    0.46960    0.09880    1.000
    H11      H        0.03490    0.52250    0.10270    1.000
    H12      H        0.97670    0.37820    0.09940    1.000
    H13      H        0.73440    0.02460    0.32790    1.000
    H14      H        0.75420    0.18650    0.27460    1.000
    H15      H        0.90490    0.20160    0.39720    1.000
    H16      H        0.91430    0.03860    0.43960    1.000
    H17      H        0.62580    0.02710    0.54290    1.000
    H18      H        0.62380    0.19040    0.50660    1.000
    H19      H        0.79550    0.04050    0.66350    1.000
    H20      H        0.76620    0.20130    0.63760    1.000
    H21      H        0.24510    0.51670    0.78170    1.000
    H22      H        0.27910    0.53040    0.90120    1.000
    H23      H        0.96510    0.47750    0.89730    1.000
    H24      H        0.02330    0.62180    0.90060    1.000
    C1       C        0.04460    0.91560    0.80680    1.000
    C2       C        0.18990    0.89700    0.69720    1.000
    C3       C        0.15500    0.88530    0.58290    1.000
    C4       C        0.31090    0.88940    0.47200    1.000
    C5       C        0.28290    0.88820    0.35120    1.000
    C6       C        0.56440    0.08730    0.76330    1.000
    C7       C        0.76220    0.67150    0.09280    1.000
    C8       C        0.78940    0.51660    0.12740    1.000
    C9       C        0.96720    0.47840    0.07130    1.000
    C10      C        0.95540    0.08440    0.19320    1.000
    C11      C        0.81010    0.10300    0.30280    1.000
    C12      C        0.84500    0.11470    0.41710    1.000
    C13      C        0.68910    0.11060    0.52800    1.000
    C14      C        0.71710    0.11180    0.64880    1.000
    C15      C        0.43560    0.91270    0.23670    1.000
    C16      C        0.23780    0.32850    0.90720    1.000
    C17      C        0.21060    0.48340    0.87260    1.000
    C18      C        0.03280    0.52160    0.92870    1.000
    O1       O        0.57770    0.04480    0.87212    1.000
    O2       O        0.57510    0.89270    0.24680    1.000
    O3       O        0.86250    0.75300    0.09830    1.000
    O4       O        0.64160    0.71860    0.05910    1.000
    O5       O        0.90060    0.88360    0.81880    1.000
    O6       O        0.06810    0.96470    0.88908    1.000
    O7       O        0.42230    0.95520    0.12788    1.000
    O8       O        0.42490    0.10730    0.75320    1.000
    O9       O        0.13750    0.24700    0.90170    1.000
    O10      O        0.35840    0.28140    0.94090    1.000
    O11      O        0.09940    0.11640    0.18120    1.000
    O12      O        0.93190    0.03530    0.11092    1.000
