# CIF file generated by openbabel 3.1.0, see https://openbabel.org
data_I
_chemical_name_common 'image0'
_cell_length_a 29.4436
_cell_length_b 29.4436
_cell_length_c 54.543
_cell_angle_alpha 90
_cell_angle_beta 90
_cell_angle_gamma 90
_space_group_name_H-M_alt 'P 1'
_space_group_name_Hall 'P 1'
loop_
    _symmetry_equiv_pos_as_xyz
    x,y,z
loop_
    _atom_site_label
    _atom_site_type_symbol
    _atom_site_fract_x
    _atom_site_fract_y
    _atom_site_fract_z
    _atom_site_occupancy
    O1       O        0.84840    0.46290    0.06917    1.000
    O2       O        0.84750    0.36820    0.06551    1.000
    O3       O        0.93850    0.46510    0.14589    1.000
    O4       O        0.79180    0.51070    0.10853    1.000
    O5       O        0.90170    0.50990    0.11461    1.000
    O6       O        0.89480    0.31120    0.10490    1.000
    O7       O        0.88160    0.49200    0.18125    1.000
    O8       O        0.75780    0.46090    0.07188    1.000
    O9       O        0.83950    0.54200    0.14593    1.000
    O10      O        0.97910    0.41010    0.11300    1.000
    O11      O        0.84080    0.26290    0.06067    1.000
    O12      O        0.93650    0.46020    0.07796    1.000
    O13      O        0.93700    0.36670    0.07359    1.000
    N1       N        0.85500    0.06730    0.92955    1.000
    C1       C        0.87310    0.22260    0.02810    1.000
    C2       C        0.83320    0.20410    0.02220    1.000
    H1       H        0.80710    0.21280    0.03060    1.000
    O14      O        0.90700    0.28690    0.04850    1.000
    C3       C        0.87550    0.25670    0.04830    1.000
    C4       C        0.86160    0.13200    0.96720    1.000
    C5       C        0.83030    0.17060    0.00270    1.000
    H2       H        0.80400    0.15340    0.00090    1.000
    C6       C        0.86620    0.16420    0.98710    1.000
    C7       C        0.82810    0.10060    0.96660    1.000
    H3       H        0.80650    0.10050    0.97910    1.000
    C8       C        0.82470    0.06670    0.94690    1.000
    H4       H        0.80150    0.04520    0.94690    1.000
    C9       C        0.90850    0.21550    0.01260    1.000
    H5       H        0.93640    0.22920    0.01570    1.000
    C10      C        0.88400    0.13380    0.94750    1.000
    H6       H        0.90320    0.15840    0.94500    1.000
    C11      C        0.88120    0.09850    0.92840    1.000
    H7       H        0.90040    0.10050    0.91490    1.000
    C12      C        0.90280    0.18670    0.99140    1.000
    H8       H        0.92680    0.18420    0.98030    1.000
    Mo1      Mo       0.80364    0.41714    0.06031    1.000
    Mo2      Mo       0.77817    0.51159    0.14396    1.000
    Mo3      Mo       0.89314    0.41548    0.06292    1.000
    Mo4      Mo       0.94774    0.35011    0.10927    1.000
    Mo5      Mo       0.95346    0.46646    0.10960    1.000
    Mo6      Mo       0.89442    0.51558    0.15126    1.000
    Zn1      Zn       0.83976    0.31166    0.08474    1.000
    Zn2      Zn       0.85080    0.51438    0.09252    1.000
    O15      O        0.34840    0.96290    0.56917    1.000
    O16      O        0.34750    0.86820    0.56551    1.000
    O17      O        0.43850    0.96510    0.64589    1.000
    O18      O        0.29180    0.01070    0.60853    1.000
    O19      O        0.40170    0.00990    0.61461    1.000
    O20      O        0.39480    0.81120    0.60490    1.000
    O21      O        0.38160    0.99200    0.68125    1.000
    O22      O        0.25780    0.96090    0.57188    1.000
    O23      O        0.33950    0.04200    0.64593    1.000
    O24      O        0.47910    0.91010    0.61300    1.000
    O25      O        0.34080    0.76290    0.56067    1.000
    O26      O        0.43650    0.96020    0.57796    1.000
    O27      O        0.43700    0.86670    0.57359    1.000
    N2       N        0.35500    0.56730    0.42955    1.000
    C13      C        0.37310    0.72260    0.52810    1.000
    C14      C        0.33320    0.70410    0.52220    1.000
    H9       H        0.30710    0.71280    0.53060    1.000
    O28      O        0.40700    0.78690    0.54850    1.000
    C15      C        0.37550    0.75670    0.54830    1.000
    C16      C        0.36160    0.63200    0.46720    1.000
    C17      C        0.33030    0.67060    0.50270    1.000
    H10      H        0.30400    0.65340    0.50090    1.000
    C18      C        0.36620    0.66420    0.48710    1.000
    C19      C        0.32810    0.60060    0.46660    1.000
    H11      H        0.30650    0.60050    0.47910    1.000
    C20      C        0.32470    0.56670    0.44690    1.000
    H12      H        0.30150    0.54520    0.44690    1.000
    C21      C        0.40850    0.71550    0.51260    1.000
    H13      H        0.43640    0.72920    0.51570    1.000
    C22      C        0.38400    0.63380    0.44750    1.000
    H14      H        0.40320    0.65840    0.44500    1.000
    C23      C        0.38120    0.59850    0.42840    1.000
    H15      H        0.40040    0.60050    0.41490    1.000
    C24      C        0.40280    0.68670    0.49140    1.000
    H16      H        0.42680    0.68420    0.48030    1.000
    Mo7      Mo       0.30364    0.91714    0.56031    1.000
    Mo8      Mo       0.27817    0.01159    0.64396    1.000
    Mo9      Mo       0.39314    0.91548    0.56292    1.000
    Mo10     Mo       0.44774    0.85011    0.60927    1.000
    Mo11     Mo       0.45346    0.96646    0.60960    1.000
    Mo12     Mo       0.39442    0.01558    0.65126    1.000
    Zn3      Zn       0.33976    0.81166    0.58474    1.000
    Zn4      Zn       0.35080    0.01438    0.59252    1.000
    O29      O        0.78710    0.40160    0.18083    1.000
    O30      O        0.88180    0.40250    0.18449    1.000
    O31      O        0.78490    0.31150    0.10411    1.000
    O32      O        0.73930    0.45820    0.14147    1.000
    O33      O        0.74010    0.34830    0.13539    1.000
    O34      O        0.93880    0.35520    0.14510    1.000
    O35      O        0.75800    0.36840    0.06875    1.000
    O36      O        0.78910    0.49220    0.17812    1.000
    O37      O        0.70800    0.41050    0.10407    1.000
    O38      O        0.83990    0.27090    0.13700    1.000
    O39      O        0.98710    0.40920    0.18933    1.000
    O40      O        0.78980    0.31350    0.17204    1.000
    O41      O        0.88330    0.31300    0.17641    1.000
    N3       N        0.18270    0.39500    0.32045    1.000
    C25      C        0.02740    0.37690    0.22190    1.000
    C26      C        0.04590    0.41680    0.22780    1.000
    H17      H        0.03720    0.44290    0.21940    1.000
    O42      O        0.96310    0.34300    0.20150    1.000
    C27      C        0.99330    0.37450    0.20170    1.000
    C28      C        0.11800    0.38840    0.28280    1.000
    C29      C        0.07940    0.41970    0.24730    1.000
    H18      H        0.09660    0.44600    0.24910    1.000
    C30      C        0.08580    0.38380    0.26290    1.000
    C31      C        0.14940    0.42190    0.28340    1.000
    H19      H        0.14950    0.44350    0.27090    1.000
    C32      C        0.18330    0.42530    0.30310    1.000
    H20      H        0.20480    0.44850    0.30310    1.000
    C33      C        0.03450    0.34150    0.23740    1.000
    H21      H        0.02080    0.31360    0.23430    1.000
    C34      C        0.11620    0.36600    0.30250    1.000
    H22      H        0.09160    0.34680    0.30500    1.000
    C35      C        0.15150    0.36880    0.32160    1.000
    H23      H        0.14950    0.34960    0.33510    1.000
    C36      C        0.06330    0.34720    0.25860    1.000
    H24      H        0.06580    0.32320    0.26970    1.000
    Mo13     Mo       0.83286    0.44636    0.18969    1.000
    Mo14     Mo       0.73841    0.47183    0.10604    1.000
    Mo15     Mo       0.83452    0.35686    0.18708    1.000
    Mo16     Mo       0.89989    0.30226    0.14073    1.000
    Mo17     Mo       0.78354    0.29654    0.14040    1.000
    Mo18     Mo       0.73442    0.35558    0.09874    1.000
    Zn5      Zn       0.93834    0.41024    0.16526    1.000
    Zn6      Zn       0.73562    0.39920    0.15748    1.000
    O43      O        0.28710    0.90160    0.68083    1.000
    O44      O        0.38180    0.90250    0.68449    1.000
    O45      O        0.28490    0.81150    0.60411    1.000
    O46      O        0.23930    0.95820    0.64147    1.000
    O47      O        0.24010    0.84830    0.63539    1.000
    O48      O        0.43880    0.85520    0.64510    1.000
    O49      O        0.25800    0.86840    0.56875    1.000
    O50      O        0.28910    0.99220    0.67812    1.000
    O51      O        0.20800    0.91050    0.60407    1.000
    O52      O        0.33990    0.77090    0.63700    1.000
    O53      O        0.48710    0.90920    0.68933    1.000
    O54      O        0.28980    0.81350    0.67204    1.000
    O55      O        0.38330    0.81300    0.67641    1.000
    N4       N        0.68270    0.89500    0.82045    1.000
    C37      C        0.52740    0.87690    0.72190    1.000
    C38      C        0.54590    0.91680    0.72780    1.000
    H25      H        0.53720    0.94290    0.71940    1.000
    O56      O        0.46310    0.84300    0.70150    1.000
    C39      C        0.49330    0.87450    0.70170    1.000
    C40      C        0.61800    0.88840    0.78280    1.000
    C41      C        0.57940    0.91970    0.74730    1.000
    H26      H        0.59660    0.94600    0.74910    1.000
    C42      C        0.58580    0.88380    0.76290    1.000
    C43      C        0.64940    0.92190    0.78340    1.000
    H27      H        0.64950    0.94350    0.77090    1.000
    C44      C        0.68330    0.92530    0.80310    1.000
    H28      H        0.70480    0.94850    0.80310    1.000
    C45      C        0.53450    0.84150    0.73740    1.000
    H29      H        0.52080    0.81360    0.73430    1.000
    C46      C        0.61620    0.86600    0.80250    1.000
    H30      H        0.59160    0.84680    0.80500    1.000
    C47      C        0.65150    0.86880    0.82160    1.000
    H31      H        0.64950    0.84960    0.83510    1.000
    C48      C        0.56330    0.84720    0.75860    1.000
    H32      H        0.56580    0.82320    0.76970    1.000
    Mo19     Mo       0.33286    0.94636    0.68969    1.000
    Mo20     Mo       0.23841    0.97183    0.60604    1.000
    Mo21     Mo       0.33452    0.85686    0.68708    1.000
    Mo22     Mo       0.39989    0.80226    0.64073    1.000
    Mo23     Mo       0.28354    0.79654    0.64040    1.000
    Mo24     Mo       0.23442    0.85558    0.59874    1.000
    Zn7      Zn       0.43834    0.91024    0.66526    1.000
    Zn8      Zn       0.23562    0.89920    0.65748    1.000
    O57      O        0.34840    0.46290    0.43083    1.000
    O58      O        0.34750    0.36820    0.43449    1.000
    O59      O        0.43850    0.46510    0.35411    1.000
    O60      O        0.29180    0.51070    0.39147    1.000
    O61      O        0.40170    0.50990    0.38539    1.000
    O62      O        0.39480    0.31120    0.39510    1.000
    O63      O        0.38160    0.49200    0.31875    1.000
    O64      O        0.25780    0.46090    0.42812    1.000
    O65      O        0.33950    0.54200    0.35407    1.000
    O66      O        0.47910    0.41010    0.38700    1.000
    O67      O        0.34080    0.26290    0.43933    1.000
    O68      O        0.43650    0.46020    0.42204    1.000
    O69      O        0.43700    0.36670    0.42641    1.000
    N5       N        0.35500    0.06730    0.57045    1.000
    C49      C        0.37310    0.22260    0.47190    1.000
    C50      C        0.33320    0.20410    0.47780    1.000
    H33      H        0.30710    0.21280    0.46940    1.000
    O70      O        0.40700    0.28690    0.45150    1.000
    C51      C        0.37550    0.25670    0.45170    1.000
    C52      C        0.36160    0.13200    0.53280    1.000
    C53      C        0.33030    0.17060    0.49730    1.000
    H34      H        0.30400    0.15340    0.49910    1.000
    C54      C        0.36620    0.16420    0.51290    1.000
    C55      C        0.32810    0.10060    0.53340    1.000
    H35      H        0.30650    0.10050    0.52090    1.000
    C56      C        0.32470    0.06670    0.55310    1.000
    H36      H        0.30150    0.04520    0.55310    1.000
    C57      C        0.40850    0.21550    0.48740    1.000
    H37      H        0.43640    0.22920    0.48430    1.000
    C58      C        0.38400    0.13380    0.55250    1.000
    H38      H        0.40320    0.15840    0.55500    1.000
    C59      C        0.38120    0.09850    0.57160    1.000
    H39      H        0.40040    0.10050    0.58510    1.000
    C60      C        0.40280    0.18670    0.50860    1.000
    H40      H        0.42680    0.18420    0.51970    1.000
    Mo25     Mo       0.30364    0.41714    0.43969    1.000
    Mo26     Mo       0.27817    0.51159    0.35604    1.000
    Mo27     Mo       0.39314    0.41548    0.43708    1.000
    Mo28     Mo       0.44774    0.35011    0.39073    1.000
    Mo29     Mo       0.45346    0.46646    0.39040    1.000
    Mo30     Mo       0.39442    0.51558    0.34874    1.000
    Zn9      Zn       0.33976    0.31166    0.41526    1.000
    Zn10     Zn       0.35080    0.51438    0.40748    1.000
    O71      O        0.84840    0.96290    0.93083    1.000
    O72      O        0.84750    0.86820    0.93449    1.000
    O73      O        0.93850    0.96510    0.85411    1.000
    O74      O        0.79180    0.01070    0.89147    1.000
    O75      O        0.90170    0.00990    0.88539    1.000
    O76      O        0.89480    0.81120    0.89510    1.000
    O77      O        0.88160    0.99200    0.81875    1.000
    O78      O        0.75780    0.96090    0.92812    1.000
    O79      O        0.83950    0.04200    0.85407    1.000
    O80      O        0.97910    0.91010    0.88700    1.000
    O81      O        0.84080    0.76290    0.93933    1.000
    O82      O        0.93650    0.96020    0.92204    1.000
    O83      O        0.93700    0.86670    0.92641    1.000
    N6       N        0.85500    0.56730    0.07045    1.000
    C61      C        0.87310    0.72260    0.97190    1.000
    C62      C        0.83320    0.70410    0.97780    1.000
    H41      H        0.80710    0.71280    0.96940    1.000
    O84      O        0.90700    0.78690    0.95150    1.000
    C63      C        0.87550    0.75670    0.95170    1.000
    C64      C        0.86160    0.63200    0.03280    1.000
    C65      C        0.83030    0.67060    0.99730    1.000
    H42      H        0.80400    0.65340    0.99910    1.000
    C66      C        0.86620    0.66420    0.01290    1.000
    C67      C        0.82810    0.60060    0.03340    1.000
    H43      H        0.80650    0.60050    0.02090    1.000
    C68      C        0.82470    0.56670    0.05310    1.000
    H44      H        0.80150    0.54520    0.05310    1.000
    C69      C        0.90850    0.71550    0.98740    1.000
    H45      H        0.93640    0.72920    0.98430    1.000
    C70      C        0.88400    0.63380    0.05250    1.000
    H46      H        0.90320    0.65840    0.05500    1.000
    C71      C        0.88120    0.59850    0.07160    1.000
    H47      H        0.90040    0.60050    0.08510    1.000
    C72      C        0.90280    0.68670    0.00860    1.000
    H48      H        0.92680    0.68420    0.01970    1.000
    Mo31     Mo       0.80364    0.91714    0.93969    1.000
    Mo32     Mo       0.77817    0.01159    0.85604    1.000
    Mo33     Mo       0.89314    0.91548    0.93708    1.000
    Mo34     Mo       0.94774    0.85011    0.89073    1.000
    Mo35     Mo       0.95346    0.96646    0.89040    1.000
    Mo36     Mo       0.89442    0.01558    0.84874    1.000
    Zn11     Zn       0.83976    0.81166    0.91526    1.000
    Zn12     Zn       0.85080    0.01438    0.90748    1.000
    O85      O        0.28710    0.40160    0.31917    1.000
    O86      O        0.38180    0.40250    0.31551    1.000
    O87      O        0.28490    0.31150    0.39589    1.000
    O88      O        0.23930    0.45820    0.35853    1.000
    O89      O        0.24010    0.34830    0.36461    1.000
    O90      O        0.43880    0.35520    0.35490    1.000
    O91      O        0.25800    0.36840    0.43125    1.000
    O92      O        0.28910    0.49220    0.32188    1.000
    O93      O        0.20800    0.41050    0.39593    1.000
    O94      O        0.33990    0.27090    0.36300    1.000
    O95      O        0.48710    0.40920    0.31067    1.000
    O96      O        0.28980    0.31350    0.32796    1.000
    O97      O        0.38330    0.31300    0.32359    1.000
    N7       N        0.68270    0.39500    0.17955    1.000
    C73      C        0.52740    0.37690    0.27810    1.000
    C74      C        0.54590    0.41680    0.27220    1.000
    H49      H        0.53720    0.44290    0.28060    1.000
    O98      O        0.46310    0.34300    0.29850    1.000
    C75      C        0.49330    0.37450    0.29830    1.000
    C76      C        0.61800    0.38840    0.21720    1.000
    C77      C        0.57940    0.41970    0.25270    1.000
    H50      H        0.59660    0.44600    0.25090    1.000
    C78      C        0.58580    0.38380    0.23710    1.000
    C79      C        0.64940    0.42190    0.21660    1.000
    H51      H        0.64950    0.44350    0.22910    1.000
    C80      C        0.68330    0.42530    0.19690    1.000
    H52      H        0.70480    0.44850    0.19690    1.000
    C81      C        0.53450    0.34150    0.26260    1.000
    H53      H        0.52080    0.31360    0.26570    1.000
    C82      C        0.61620    0.36600    0.19750    1.000
    H54      H        0.59160    0.34680    0.19500    1.000
    C83      C        0.65150    0.36880    0.17840    1.000
    H55      H        0.64950    0.34960    0.16490    1.000
    C84      C        0.56330    0.34720    0.24140    1.000
    H56      H        0.56580    0.32320    0.23030    1.000
    Mo37     Mo       0.33286    0.44636    0.31031    1.000
    Mo38     Mo       0.23841    0.47183    0.39396    1.000
    Mo39     Mo       0.33452    0.35686    0.31292    1.000
    Mo40     Mo       0.39989    0.30226    0.35927    1.000
    Mo41     Mo       0.28354    0.29654    0.35960    1.000
    Mo42     Mo       0.23442    0.35558    0.40126    1.000
    Zn13     Zn       0.43834    0.41024    0.33474    1.000
    Zn14     Zn       0.23562    0.39920    0.34252    1.000
    O99      O        0.78710    0.90160    0.81917    1.000
    O100     O        0.88180    0.90250    0.81551    1.000
    O101     O        0.78490    0.81150    0.89589    1.000
    O102     O        0.73930    0.95820    0.85853    1.000
    O103     O        0.74010    0.84830    0.86461    1.000
    O104     O        0.93880    0.85520    0.85490    1.000
    O105     O        0.75800    0.86840    0.93125    1.000
    O106     O        0.78910    0.99220    0.82188    1.000
    O107     O        0.70800    0.91050    0.89593    1.000
    O108     O        0.83990    0.77090    0.86300    1.000
    O109     O        0.98710    0.90920    0.81067    1.000
    O110     O        0.78980    0.81350    0.82796    1.000
    O111     O        0.88330    0.81300    0.82359    1.000
    N8       N        0.18270    0.89500    0.67955    1.000
    C85      C        0.02740    0.87690    0.77810    1.000
    C86      C        0.04590    0.91680    0.77220    1.000
    H57      H        0.03720    0.94290    0.78060    1.000
    O112     O        0.96310    0.84300    0.79850    1.000
    C87      C        0.99330    0.87450    0.79830    1.000
    C88      C        0.11800    0.88840    0.71720    1.000
    C89      C        0.07940    0.91970    0.75270    1.000
    H58      H        0.09660    0.94600    0.75090    1.000
    C90      C        0.08580    0.88380    0.73710    1.000
    C91      C        0.14940    0.92190    0.71660    1.000
    H59      H        0.14950    0.94350    0.72910    1.000
    C92      C        0.18330    0.92530    0.69690    1.000
    H60      H        0.20480    0.94850    0.69690    1.000
    C93      C        0.03450    0.84150    0.76260    1.000
    H61      H        0.02080    0.81360    0.76570    1.000
    C94      C        0.11620    0.86600    0.69750    1.000
    H62      H        0.09160    0.84680    0.69500    1.000
    C95      C        0.15150    0.86880    0.67840    1.000
    H63      H        0.14950    0.84960    0.66490    1.000
    C96      C        0.06330    0.84720    0.74140    1.000
    H64      H        0.06580    0.82320    0.73030    1.000
    Mo43     Mo       0.83286    0.94636    0.81031    1.000
    Mo44     Mo       0.73841    0.97183    0.89396    1.000
    Mo45     Mo       0.83452    0.85686    0.81292    1.000
    Mo46     Mo       0.89989    0.80226    0.85927    1.000
    Mo47     Mo       0.78354    0.79654    0.85960    1.000
    Mo48     Mo       0.73442    0.85558    0.90126    1.000
    Zn15     Zn       0.93834    0.91024    0.83474    1.000
    Zn16     Zn       0.73562    0.89920    0.84252    1.000
    O113     O        0.65160    0.53710    0.56917    1.000
    O114     O        0.65250    0.63180    0.56551    1.000
    O115     O        0.56150    0.53490    0.64589    1.000
    O116     O        0.70820    0.48930    0.60853    1.000
    O117     O        0.59830    0.49010    0.61461    1.000
    O118     O        0.60520    0.68880    0.60490    1.000
    O119     O        0.61840    0.50800    0.68125    1.000
    O120     O        0.74220    0.53910    0.57188    1.000
    O121     O        0.66050    0.45800    0.64593    1.000
    O122     O        0.52090    0.58990    0.61300    1.000
    O123     O        0.65920    0.73710    0.56067    1.000
    O124     O        0.56350    0.53980    0.57796    1.000
    O125     O        0.56300    0.63330    0.57359    1.000
    N9       N        0.64500    0.93270    0.42955    1.000
    C97      C        0.62690    0.77740    0.52810    1.000
    C98      C        0.66680    0.79590    0.52220    1.000
    H65      H        0.69290    0.78720    0.53060    1.000
    O126     O        0.59300    0.71310    0.54850    1.000
    C99      C        0.62450    0.74330    0.54830    1.000
    C100     C        0.63840    0.86800    0.46720    1.000
    C101     C        0.66970    0.82940    0.50270    1.000
    H66      H        0.69600    0.84660    0.50090    1.000
    C102     C        0.63380    0.83580    0.48710    1.000
    C103     C        0.67190    0.89940    0.46660    1.000
    H67      H        0.69350    0.89950    0.47910    1.000
    C104     C        0.67530    0.93330    0.44690    1.000
    H68      H        0.69850    0.95480    0.44690    1.000
    C105     C        0.59150    0.78450    0.51260    1.000
    H69      H        0.56360    0.77080    0.51570    1.000
    C106     C        0.61600    0.86620    0.44750    1.000
    H70      H        0.59680    0.84160    0.44500    1.000
    C107     C        0.61880    0.90150    0.42840    1.000
    H71      H        0.59960    0.89950    0.41490    1.000
    C108     C        0.59720    0.81330    0.49140    1.000
    H72      H        0.57320    0.81580    0.48030    1.000
    Mo49     Mo       0.69636    0.58286    0.56031    1.000
    Mo50     Mo       0.72183    0.48841    0.64396    1.000
    Mo51     Mo       0.60686    0.58452    0.56292    1.000
    Mo52     Mo       0.55226    0.64989    0.60927    1.000
    Mo53     Mo       0.54654    0.53354    0.60960    1.000
    Mo54     Mo       0.60558    0.48442    0.65126    1.000
    Zn17     Zn       0.66024    0.68834    0.58474    1.000
    Zn18     Zn       0.64920    0.48562    0.59252    1.000
    O127     O        0.15160    0.03710    0.06917    1.000
    O128     O        0.15250    0.13180    0.06551    1.000
    O129     O        0.06150    0.03490    0.14589    1.000
    O130     O        0.20820    0.98930    0.10853    1.000
    O131     O        0.09830    0.99010    0.11461    1.000
    O132     O        0.10520    0.18880    0.10490    1.000
    O133     O        0.11840    0.00800    0.18125    1.000
    O134     O        0.24220    0.03910    0.07188    1.000
    O135     O        0.16050    0.95800    0.14593    1.000
    O136     O        0.02090    0.08990    0.11300    1.000
    O137     O        0.15920    0.23710    0.06067    1.000
    O138     O        0.06350    0.03980    0.07796    1.000
    O139     O        0.06300    0.13330    0.07359    1.000
    N10      N        0.14500    0.43270    0.92955    1.000
    C109     C        0.12690    0.27740    0.02810    1.000
    C110     C        0.16680    0.29590    0.02220    1.000
    H73      H        0.19290    0.28720    0.03060    1.000
    O140     O        0.09300    0.21310    0.04850    1.000
    C111     C        0.12450    0.24330    0.04830    1.000
    C112     C        0.13840    0.36800    0.96720    1.000
    C113     C        0.16970    0.32940    0.00270    1.000
    H74      H        0.19600    0.34660    0.00090    1.000
    C114     C        0.13380    0.33580    0.98710    1.000
    C115     C        0.17190    0.39940    0.96660    1.000
    H75      H        0.19350    0.39950    0.97910    1.000
    C116     C        0.17530    0.43330    0.94690    1.000
    H76      H        0.19850    0.45480    0.94690    1.000
    C117     C        0.09150    0.28450    0.01260    1.000
    H77      H        0.06360    0.27080    0.01570    1.000
    C118     C        0.11600    0.36620    0.94750    1.000
    H78      H        0.09680    0.34160    0.94500    1.000
    C119     C        0.11880    0.40150    0.92840    1.000
    H79      H        0.09960    0.39950    0.91490    1.000
    C120     C        0.09720    0.31330    0.99140    1.000
    H80      H        0.07320    0.31580    0.98030    1.000
    Mo55     Mo       0.19636    0.08286    0.06031    1.000
    Mo56     Mo       0.22183    0.98841    0.14396    1.000
    Mo57     Mo       0.10686    0.08452    0.06292    1.000
    Mo58     Mo       0.05226    0.14989    0.10927    1.000
    Mo59     Mo       0.04654    0.03354    0.10960    1.000
    Mo60     Mo       0.10558    0.98442    0.15126    1.000
    Zn19     Zn       0.16024    0.18834    0.08474    1.000
    Zn20     Zn       0.14920    0.98562    0.09252    1.000
    O141     O        0.71290    0.59840    0.68083    1.000
    O142     O        0.61820    0.59750    0.68449    1.000
    O143     O        0.71510    0.68850    0.60411    1.000
    O144     O        0.76070    0.54180    0.64147    1.000
    O145     O        0.75990    0.65170    0.63539    1.000
    O146     O        0.56120    0.64480    0.64510    1.000
    O147     O        0.74200    0.63160    0.56875    1.000
    O148     O        0.71090    0.50780    0.67812    1.000
    O149     O        0.79200    0.58950    0.60407    1.000
    O150     O        0.66010    0.72910    0.63700    1.000
    O151     O        0.51290    0.59080    0.68933    1.000
    O152     O        0.71020    0.68650    0.67204    1.000
    O153     O        0.61670    0.68700    0.67641    1.000
    N11      N        0.31730    0.60500    0.82045    1.000
    C121     C        0.47260    0.62310    0.72190    1.000
    C122     C        0.45410    0.58320    0.72780    1.000
    H81      H        0.46280    0.55710    0.71940    1.000
    O154     O        0.53690    0.65700    0.70150    1.000
    C123     C        0.50670    0.62550    0.70170    1.000
    C124     C        0.38200    0.61160    0.78280    1.000
    C125     C        0.42060    0.58030    0.74730    1.000
    H82      H        0.40340    0.55400    0.74910    1.000
    C126     C        0.41420    0.61620    0.76290    1.000
    C127     C        0.35060    0.57810    0.78340    1.000
    H83      H        0.35050    0.55650    0.77090    1.000
    C128     C        0.31670    0.57470    0.80310    1.000
    H84      H        0.29520    0.55150    0.80310    1.000
    C129     C        0.46550    0.65850    0.73740    1.000
    H85      H        0.47920    0.68640    0.73430    1.000
    C130     C        0.38380    0.63400    0.80250    1.000
    H86      H        0.40840    0.65320    0.80500    1.000
    C131     C        0.34850    0.63120    0.82160    1.000
    H87      H        0.35050    0.65040    0.83510    1.000
    C132     C        0.43670    0.65280    0.75860    1.000
    H88      H        0.43420    0.67680    0.76970    1.000
    Mo61     Mo       0.66714    0.55364    0.68969    1.000
    Mo62     Mo       0.76159    0.52817    0.60604    1.000
    Mo63     Mo       0.66548    0.64314    0.68708    1.000
    Mo64     Mo       0.60011    0.69774    0.64073    1.000
    Mo65     Mo       0.71646    0.70346    0.64040    1.000
    Mo66     Mo       0.76558    0.64442    0.59874    1.000
    Zn21     Zn       0.56166    0.58976    0.66526    1.000
    Zn22     Zn       0.76438    0.60080    0.65748    1.000
    O155     O        0.21290    0.09840    0.18083    1.000
    O156     O        0.11820    0.09750    0.18449    1.000
    O157     O        0.21510    0.18850    0.10411    1.000
    O158     O        0.26070    0.04180    0.14147    1.000
    O159     O        0.25990    0.15170    0.13539    1.000
    O160     O        0.06120    0.14480    0.14510    1.000
    O161     O        0.24200    0.13160    0.06875    1.000
    O162     O        0.21090    0.00780    0.17812    1.000
    O163     O        0.29200    0.08950    0.10407    1.000
    O164     O        0.16010    0.22910    0.13700    1.000
    O165     O        0.01290    0.09080    0.18933    1.000
    O166     O        0.21020    0.18650    0.17204    1.000
    O167     O        0.11670    0.18700    0.17641    1.000
    N12      N        0.81730    0.10500    0.32045    1.000
    C133     C        0.97260    0.12310    0.22190    1.000
    C134     C        0.95410    0.08320    0.22780    1.000
    H89      H        0.96280    0.05710    0.21940    1.000
    O168     O        0.03690    0.15700    0.20150    1.000
    C135     C        0.00670    0.12550    0.20170    1.000
    C136     C        0.88200    0.11160    0.28280    1.000
    C137     C        0.92060    0.08030    0.24730    1.000
    H90      H        0.90340    0.05400    0.24910    1.000
    C138     C        0.91420    0.11620    0.26290    1.000
    C139     C        0.85060    0.07810    0.28340    1.000
    H91      H        0.85050    0.05650    0.27090    1.000
    C140     C        0.81670    0.07470    0.30310    1.000
    H92      H        0.79520    0.05150    0.30310    1.000
    C141     C        0.96550    0.15850    0.23740    1.000
    H93      H        0.97920    0.18640    0.23430    1.000
    C142     C        0.88380    0.13400    0.30250    1.000
    H94      H        0.90840    0.15320    0.30500    1.000
    C143     C        0.84850    0.13120    0.32160    1.000
    H95      H        0.85050    0.15040    0.33510    1.000
    C144     C        0.93670    0.15280    0.25860    1.000
    H96      H        0.93420    0.17680    0.26970    1.000
    Mo67     Mo       0.16714    0.05364    0.18969    1.000
    Mo68     Mo       0.26159    0.02817    0.10604    1.000
    Mo69     Mo       0.16548    0.14314    0.18708    1.000
    Mo70     Mo       0.10011    0.19774    0.14073    1.000
    Mo71     Mo       0.21646    0.20346    0.14040    1.000
    Mo72     Mo       0.26558    0.14442    0.09874    1.000
    Zn23     Zn       0.06166    0.08976    0.16526    1.000
    Zn24     Zn       0.26438    0.10080    0.15748    1.000
    O169     O        0.15160    0.53710    0.93083    1.000
    O170     O        0.15250    0.63180    0.93449    1.000
    O171     O        0.06150    0.53490    0.85411    1.000
    O172     O        0.20820    0.48930    0.89147    1.000
    O173     O        0.09830    0.49010    0.88539    1.000
    O174     O        0.10520    0.68880    0.89510    1.000
    O175     O        0.11840    0.50800    0.81875    1.000
    O176     O        0.24220    0.53910    0.92812    1.000
    O177     O        0.16050    0.45800    0.85407    1.000
    O178     O        0.02090    0.58990    0.88700    1.000
    O179     O        0.15920    0.73710    0.93933    1.000
    O180     O        0.06350    0.53980    0.92204    1.000
    O181     O        0.06300    0.63330    0.92641    1.000
    N13      N        0.14500    0.93270    0.07045    1.000
    C145     C        0.12690    0.77740    0.97190    1.000
    C146     C        0.16680    0.79590    0.97780    1.000
    H97      H        0.19290    0.78720    0.96940    1.000
    O182     O        0.09300    0.71310    0.95150    1.000
    C147     C        0.12450    0.74330    0.95170    1.000
    C148     C        0.13840    0.86800    0.03280    1.000
    C149     C        0.16970    0.82940    0.99730    1.000
    H98      H        0.19600    0.84660    0.99910    1.000
    C150     C        0.13380    0.83580    0.01290    1.000
    C151     C        0.17190    0.89940    0.03340    1.000
    H99      H        0.19350    0.89950    0.02090    1.000
    C152     C        0.17530    0.93330    0.05310    1.000
    H100     H        0.19850    0.95480    0.05310    1.000
    C153     C        0.09150    0.78450    0.98740    1.000
    H101     H        0.06360    0.77080    0.98430    1.000
    C154     C        0.11600    0.86620    0.05250    1.000
    H102     H        0.09680    0.84160    0.05500    1.000
    C155     C        0.11880    0.90150    0.07160    1.000
    H103     H        0.09960    0.89950    0.08510    1.000
    C156     C        0.09720    0.81330    0.00860    1.000
    H104     H        0.07320    0.81580    0.01970    1.000
    Mo73     Mo       0.19636    0.58286    0.93969    1.000
    Mo74     Mo       0.22183    0.48841    0.85604    1.000
    Mo75     Mo       0.10686    0.58452    0.93708    1.000
    Mo76     Mo       0.05226    0.64989    0.89073    1.000
    Mo77     Mo       0.04654    0.53354    0.89040    1.000
    Mo78     Mo       0.10558    0.48442    0.84874    1.000
    Zn25     Zn       0.16024    0.68834    0.91526    1.000
    Zn26     Zn       0.14920    0.48562    0.90748    1.000
    O183     O        0.65160    0.03710    0.43083    1.000
    O184     O        0.65250    0.13180    0.43449    1.000
    O185     O        0.56150    0.03490    0.35411    1.000
    O186     O        0.70820    0.98930    0.39147    1.000
    O187     O        0.59830    0.99010    0.38539    1.000
    O188     O        0.60520    0.18880    0.39510    1.000
    O189     O        0.61840    0.00800    0.31875    1.000
    O190     O        0.74220    0.03910    0.42812    1.000
    O191     O        0.66050    0.95800    0.35407    1.000
    O192     O        0.52090    0.08990    0.38700    1.000
    O193     O        0.65920    0.23710    0.43933    1.000
    O194     O        0.56350    0.03980    0.42204    1.000
    O195     O        0.56300    0.13330    0.42641    1.000
    N14      N        0.64500    0.43270    0.57045    1.000
    C157     C        0.62690    0.27740    0.47190    1.000
    C158     C        0.66680    0.29590    0.47780    1.000
    H105     H        0.69290    0.28720    0.46940    1.000
    O196     O        0.59300    0.21310    0.45150    1.000
    C159     C        0.62450    0.24330    0.45170    1.000
    C160     C        0.63840    0.36800    0.53280    1.000
    C161     C        0.66970    0.32940    0.49730    1.000
    H106     H        0.69600    0.34660    0.49910    1.000
    C162     C        0.63380    0.33580    0.51290    1.000
    C163     C        0.67190    0.39940    0.53340    1.000
    H107     H        0.69350    0.39950    0.52090    1.000
    C164     C        0.67530    0.43330    0.55310    1.000
    H108     H        0.69850    0.45480    0.55310    1.000
    C165     C        0.59150    0.28450    0.48740    1.000
    H109     H        0.56360    0.27080    0.48430    1.000
    C166     C        0.61600    0.36620    0.55250    1.000
    H110     H        0.59680    0.34160    0.55500    1.000
    C167     C        0.61880    0.40150    0.57160    1.000
    H111     H        0.59960    0.39950    0.58510    1.000
    C168     C        0.59720    0.31330    0.50860    1.000
    H112     H        0.57320    0.31580    0.51970    1.000
    Mo79     Mo       0.69636    0.08286    0.43969    1.000
    Mo80     Mo       0.72183    0.98841    0.35604    1.000
    Mo81     Mo       0.60686    0.08452    0.43708    1.000
    Mo82     Mo       0.55226    0.14989    0.39073    1.000
    Mo83     Mo       0.54654    0.03354    0.39040    1.000
    Mo84     Mo       0.60558    0.98442    0.34874    1.000
    Zn27     Zn       0.66024    0.18834    0.41526    1.000
    Zn28     Zn       0.64920    0.98562    0.40748    1.000
    O197     O        0.21290    0.59840    0.81917    1.000
    O198     O        0.11820    0.59750    0.81551    1.000
    O199     O        0.21510    0.68850    0.89589    1.000
    O200     O        0.26070    0.54180    0.85853    1.000
    O201     O        0.25990    0.65170    0.86461    1.000
    O202     O        0.06120    0.64480    0.85490    1.000
    O203     O        0.24200    0.63160    0.93125    1.000
    O204     O        0.21090    0.50780    0.82188    1.000
    O205     O        0.29200    0.58950    0.89593    1.000
    O206     O        0.16010    0.72910    0.86300    1.000
    O207     O        0.01290    0.59080    0.81067    1.000
    O208     O        0.21020    0.68650    0.82796    1.000
    O209     O        0.11670    0.68700    0.82359    1.000
    N15      N        0.81730    0.60500    0.67955    1.000
    C169     C        0.97260    0.62310    0.77810    1.000
    C170     C        0.95410    0.58320    0.77220    1.000
    H113     H        0.96280    0.55710    0.78060    1.000
    O210     O        0.03690    0.65700    0.79850    1.000
    C171     C        0.00670    0.62550    0.79830    1.000
    C172     C        0.88200    0.61160    0.71720    1.000
    C173     C        0.92060    0.58030    0.75270    1.000
    H114     H        0.90340    0.55400    0.75090    1.000
    C174     C        0.91420    0.61620    0.73710    1.000
    C175     C        0.85060    0.57810    0.71660    1.000
    H115     H        0.85050    0.55650    0.72910    1.000
    C176     C        0.81670    0.57470    0.69690    1.000
    H116     H        0.79520    0.55150    0.69690    1.000
    C177     C        0.96550    0.65850    0.76260    1.000
    H117     H        0.97920    0.68640    0.76570    1.000
    C178     C        0.88380    0.63400    0.69750    1.000
    H118     H        0.90840    0.65320    0.69500    1.000
    C179     C        0.84850    0.63120    0.67840    1.000
    H119     H        0.85050    0.65040    0.66490    1.000
    C180     C        0.93670    0.65280    0.74140    1.000
    H120     H        0.93420    0.67680    0.73030    1.000
    Mo85     Mo       0.16714    0.55364    0.81031    1.000
    Mo86     Mo       0.26159    0.52817    0.89396    1.000
    Mo87     Mo       0.16548    0.64314    0.81292    1.000
    Mo88     Mo       0.10011    0.69774    0.85927    1.000
    Mo89     Mo       0.21646    0.70346    0.85960    1.000
    Mo90     Mo       0.26558    0.64442    0.90126    1.000
    Zn29     Zn       0.06166    0.58976    0.83474    1.000
    Zn30     Zn       0.26438    0.60080    0.84252    1.000
    O211     O        0.71290    0.09840    0.31917    1.000
    O212     O        0.61820    0.09750    0.31551    1.000
    O213     O        0.71510    0.18850    0.39589    1.000
    O214     O        0.76070    0.04180    0.35853    1.000
    O215     O        0.75990    0.15170    0.36461    1.000
    O216     O        0.56120    0.14480    0.35490    1.000
    O217     O        0.74200    0.13160    0.43125    1.000
    O218     O        0.71090    0.00780    0.32188    1.000
    O219     O        0.79200    0.08950    0.39593    1.000
    O220     O        0.66010    0.22910    0.36300    1.000
    O221     O        0.51290    0.09080    0.31067    1.000
    O222     O        0.71020    0.18650    0.32796    1.000
    O223     O        0.61670    0.18700    0.32359    1.000
    N16      N        0.31730    0.10500    0.17955    1.000
    C181     C        0.47260    0.12310    0.27810    1.000
    C182     C        0.45410    0.08320    0.27220    1.000
    H121     H        0.46280    0.05710    0.28060    1.000
    O224     O        0.53690    0.15700    0.29850    1.000
    C183     C        0.50670    0.12550    0.29830    1.000
    C184     C        0.38200    0.11160    0.21720    1.000
    C185     C        0.42060    0.08030    0.25270    1.000
    H122     H        0.40340    0.05400    0.25090    1.000
    C186     C        0.41420    0.11620    0.23710    1.000
    C187     C        0.35060    0.07810    0.21660    1.000
    H123     H        0.35050    0.05650    0.22910    1.000
    C188     C        0.31670    0.07470    0.19690    1.000
    H124     H        0.29520    0.05150    0.19690    1.000
    C189     C        0.46550    0.15850    0.26260    1.000
    H125     H        0.47920    0.18640    0.26570    1.000
    C190     C        0.38380    0.13400    0.19750    1.000
    H126     H        0.40840    0.15320    0.19500    1.000
    C191     C        0.34850    0.13120    0.17840    1.000
    H127     H        0.35050    0.15040    0.16490    1.000
    C192     C        0.43670    0.15280    0.24140    1.000
    H128     H        0.43420    0.17680    0.23030    1.000
    Mo91     Mo       0.66714    0.05364    0.31031    1.000
    Mo92     Mo       0.76159    0.02817    0.39396    1.000
    Mo93     Mo       0.66548    0.14314    0.31292    1.000
    Mo94     Mo       0.60011    0.19774    0.35927    1.000
    Mo95     Mo       0.71646    0.20346    0.35960    1.000
    Mo96     Mo       0.76558    0.14442    0.40126    1.000
    Zn31     Zn       0.56166    0.08976    0.33474    1.000
    Zn32     Zn       0.76438    0.10080    0.34252    1.000
    O225     O        0.78710    0.59840    0.31917    1.000
    O226     O        0.88180    0.59750    0.31551    1.000
    O227     O        0.78490    0.68850    0.39589    1.000
    O228     O        0.73930    0.54180    0.35853    1.000
    O229     O        0.74010    0.65170    0.36461    1.000
    O230     O        0.93880    0.64480    0.35490    1.000
    O231     O        0.75800    0.63160    0.43125    1.000
    O232     O        0.78910    0.50780    0.32188    1.000
    O233     O        0.70800    0.58950    0.39593    1.000
    O234     O        0.83990    0.72910    0.36300    1.000
    O235     O        0.98710    0.59080    0.31067    1.000
    O236     O        0.78980    0.68650    0.32796    1.000
    O237     O        0.88330    0.68700    0.32359    1.000
    N17      N        0.18270    0.60500    0.17955    1.000
    C193     C        0.02740    0.62310    0.27810    1.000
    C194     C        0.04590    0.58320    0.27220    1.000
    H129     H        0.03720    0.55710    0.28060    1.000
    O238     O        0.96310    0.65700    0.29850    1.000
    C195     C        0.99330    0.62550    0.29830    1.000
    C196     C        0.11800    0.61160    0.21720    1.000
    C197     C        0.07940    0.58030    0.25270    1.000
    H130     H        0.09660    0.55400    0.25090    1.000
    C198     C        0.08580    0.61620    0.23710    1.000
    C199     C        0.14940    0.57810    0.21660    1.000
    H131     H        0.14950    0.55650    0.22910    1.000
    C200     C        0.18330    0.57470    0.19690    1.000
    H132     H        0.20480    0.55150    0.19690    1.000
    C201     C        0.03450    0.65850    0.26260    1.000
    H133     H        0.02080    0.68640    0.26570    1.000
    C202     C        0.11620    0.63400    0.19750    1.000
    H134     H        0.09160    0.65320    0.19500    1.000
    C203     C        0.15150    0.63120    0.17840    1.000
    H135     H        0.14950    0.65040    0.16490    1.000
    C204     C        0.06330    0.65280    0.24140    1.000
    H136     H        0.06580    0.67680    0.23030    1.000
    Mo97     Mo       0.83286    0.55364    0.31031    1.000
    Mo98     Mo       0.73841    0.52817    0.39396    1.000
    Mo99     Mo       0.83452    0.64314    0.31292    1.000
    Mo100    Mo       0.89989    0.69774    0.35927    1.000
    Mo101    Mo       0.78354    0.70346    0.35960    1.000
    Mo102    Mo       0.73442    0.64442    0.40126    1.000
    Zn33     Zn       0.93834    0.58976    0.33474    1.000
    Zn34     Zn       0.73562    0.60080    0.34252    1.000
    O239     O        0.28710    0.09840    0.81917    1.000
    O240     O        0.38180    0.09750    0.81551    1.000
    O241     O        0.28490    0.18850    0.89589    1.000
    O242     O        0.23930    0.04180    0.85853    1.000
    O243     O        0.24010    0.15170    0.86461    1.000
    O244     O        0.43880    0.14480    0.85490    1.000
    O245     O        0.25800    0.13160    0.93125    1.000
    O246     O        0.28910    0.00780    0.82188    1.000
    O247     O        0.20800    0.08950    0.89593    1.000
    O248     O        0.33990    0.22910    0.86300    1.000
    O249     O        0.48710    0.09080    0.81067    1.000
    O250     O        0.28980    0.18650    0.82796    1.000
    O251     O        0.38330    0.18700    0.82359    1.000
    N18      N        0.68270    0.10500    0.67955    1.000
    C205     C        0.52740    0.12310    0.77810    1.000
    C206     C        0.54590    0.08320    0.77220    1.000
    H137     H        0.53720    0.05710    0.78060    1.000
    O252     O        0.46310    0.15700    0.79850    1.000
    C207     C        0.49330    0.12550    0.79830    1.000
    C208     C        0.61800    0.11160    0.71720    1.000
    C209     C        0.57940    0.08030    0.75270    1.000
    H138     H        0.59660    0.05400    0.75090    1.000
    C210     C        0.58580    0.11620    0.73710    1.000
    C211     C        0.64940    0.07810    0.71660    1.000
    H139     H        0.64950    0.05650    0.72910    1.000
    C212     C        0.68330    0.07470    0.69690    1.000
    H140     H        0.70480    0.05150    0.69690    1.000
    C213     C        0.53450    0.15850    0.76260    1.000
    H141     H        0.52080    0.18640    0.76570    1.000
    C214     C        0.61620    0.13400    0.69750    1.000
    H142     H        0.59160    0.15320    0.69500    1.000
    C215     C        0.65150    0.13120    0.67840    1.000
    H143     H        0.64950    0.15040    0.66490    1.000
    C216     C        0.56330    0.15280    0.74140    1.000
    H144     H        0.56580    0.17680    0.73030    1.000
    Mo103    Mo       0.33286    0.05364    0.81031    1.000
    Mo104    Mo       0.23841    0.02817    0.89396    1.000
    Mo105    Mo       0.33452    0.14314    0.81292    1.000
    Mo106    Mo       0.39989    0.19774    0.85927    1.000
    Mo107    Mo       0.28354    0.20346    0.85960    1.000
    Mo108    Mo       0.23442    0.14442    0.90126    1.000
    Zn35     Zn       0.43834    0.08976    0.83474    1.000
    Zn36     Zn       0.23562    0.10080    0.84252    1.000
    O253     O        0.84840    0.53710    0.43083    1.000
    O254     O        0.84750    0.63180    0.43449    1.000
    O255     O        0.93850    0.53490    0.35411    1.000
    O256     O        0.79180    0.48930    0.39147    1.000
    O257     O        0.90170    0.49010    0.38539    1.000
    O258     O        0.89480    0.68880    0.39510    1.000
    O259     O        0.88160    0.50800    0.31875    1.000
    O260     O        0.75780    0.53910    0.42812    1.000
    O261     O        0.83950    0.45800    0.35407    1.000
    O262     O        0.97910    0.58990    0.38700    1.000
    O263     O        0.84080    0.73710    0.43933    1.000
    O264     O        0.93650    0.53980    0.42204    1.000
    O265     O        0.93700    0.63330    0.42641    1.000
    N19      N        0.85500    0.93270    0.57045    1.000
    C217     C        0.87310    0.77740    0.47190    1.000
    C218     C        0.83320    0.79590    0.47780    1.000
    H145     H        0.80710    0.78720    0.46940    1.000
    O266     O        0.90700    0.71310    0.45150    1.000
    C219     C        0.87550    0.74330    0.45170    1.000
    C220     C        0.86160    0.86800    0.53280    1.000
    C221     C        0.83030    0.82940    0.49730    1.000
    H146     H        0.80400    0.84660    0.49910    1.000
    C222     C        0.86620    0.83580    0.51290    1.000
    C223     C        0.82810    0.89940    0.53340    1.000
    H147     H        0.80650    0.89950    0.52090    1.000
    C224     C        0.82470    0.93330    0.55310    1.000
    H148     H        0.80150    0.95480    0.55310    1.000
    C225     C        0.90850    0.78450    0.48740    1.000
    H149     H        0.93640    0.77080    0.48430    1.000
    C226     C        0.88400    0.86620    0.55250    1.000
    H150     H        0.90320    0.84160    0.55500    1.000
    C227     C        0.88120    0.90150    0.57160    1.000
    H151     H        0.90040    0.89950    0.58510    1.000
    C228     C        0.90280    0.81330    0.50860    1.000
    H152     H        0.92680    0.81580    0.51970    1.000
    Mo109    Mo       0.80364    0.58286    0.43969    1.000
    Mo110    Mo       0.77817    0.48841    0.35604    1.000
    Mo111    Mo       0.89314    0.58452    0.43708    1.000
    Mo112    Mo       0.94774    0.64989    0.39073    1.000
    Mo113    Mo       0.95346    0.53354    0.39040    1.000
    Mo114    Mo       0.89442    0.48442    0.34874    1.000
    Zn37     Zn       0.83976    0.68834    0.41526    1.000
    Zn38     Zn       0.85080    0.48562    0.40748    1.000
    O267     O        0.34840    0.03710    0.93083    1.000
    O268     O        0.34750    0.13180    0.93449    1.000
    O269     O        0.43850    0.03490    0.85411    1.000
    O270     O        0.29180    0.98930    0.89147    1.000
    O271     O        0.40170    0.99010    0.88539    1.000
    O272     O        0.39480    0.18880    0.89510    1.000
    O273     O        0.38160    0.00800    0.81875    1.000
    O274     O        0.25780    0.03910    0.92812    1.000
    O275     O        0.33950    0.95800    0.85407    1.000
    O276     O        0.47910    0.08990    0.88700    1.000
    O277     O        0.34080    0.23710    0.93933    1.000
    O278     O        0.43650    0.03980    0.92204    1.000
    O279     O        0.43700    0.13330    0.92641    1.000
    N20      N        0.35500    0.43270    0.07045    1.000
    C229     C        0.37310    0.27740    0.97190    1.000
    C230     C        0.33320    0.29590    0.97780    1.000
    H153     H        0.30710    0.28720    0.96940    1.000
    O280     O        0.40700    0.21310    0.95150    1.000
    C231     C        0.37550    0.24330    0.95170    1.000
    C232     C        0.36160    0.36800    0.03280    1.000
    C233     C        0.33030    0.32940    0.99730    1.000
    H154     H        0.30400    0.34660    0.99910    1.000
    C234     C        0.36620    0.33580    0.01290    1.000
    C235     C        0.32810    0.39940    0.03340    1.000
    H155     H        0.30650    0.39950    0.02090    1.000
    C236     C        0.32470    0.43330    0.05310    1.000
    H156     H        0.30150    0.45480    0.05310    1.000
    C237     C        0.40850    0.28450    0.98740    1.000
    H157     H        0.43640    0.27080    0.98430    1.000
    C238     C        0.38400    0.36620    0.05250    1.000
    H158     H        0.40320    0.34160    0.05500    1.000
    C239     C        0.38120    0.40150    0.07160    1.000
    H159     H        0.40040    0.39950    0.08510    1.000
    C240     C        0.40280    0.31330    0.00860    1.000
    H160     H        0.42680    0.31580    0.01970    1.000
    Mo115    Mo       0.30364    0.08286    0.93969    1.000
    Mo116    Mo       0.27817    0.98841    0.85604    1.000
    Mo117    Mo       0.39314    0.08452    0.93708    1.000
    Mo118    Mo       0.44774    0.14989    0.89073    1.000
    Mo119    Mo       0.45346    0.03354    0.89040    1.000
    Mo120    Mo       0.39442    0.98442    0.84874    1.000
    Zn39     Zn       0.33976    0.18834    0.91526    1.000
    Zn40     Zn       0.35080    0.98562    0.90748    1.000
    O281     O        0.28710    0.59840    0.18083    1.000
    O282     O        0.38180    0.59750    0.18449    1.000
    O283     O        0.28490    0.68850    0.10411    1.000
    O284     O        0.23930    0.54180    0.14147    1.000
    O285     O        0.24010    0.65170    0.13539    1.000
    O286     O        0.43880    0.64480    0.14510    1.000
    O287     O        0.25800    0.63160    0.06875    1.000
    O288     O        0.28910    0.50780    0.17812    1.000
    O289     O        0.20800    0.58950    0.10407    1.000
    O290     O        0.33990    0.72910    0.13700    1.000
    O291     O        0.48710    0.59080    0.18933    1.000
    O292     O        0.28980    0.68650    0.17204    1.000
    O293     O        0.38330    0.68700    0.17641    1.000
    N21      N        0.68270    0.60500    0.32045    1.000
    C241     C        0.52740    0.62310    0.22190    1.000
    C242     C        0.54590    0.58320    0.22780    1.000
    H161     H        0.53720    0.55710    0.21940    1.000
    O294     O        0.46310    0.65700    0.20150    1.000
    C243     C        0.49330    0.62550    0.20170    1.000
    C244     C        0.61800    0.61160    0.28280    1.000
    C245     C        0.57940    0.58030    0.24730    1.000
    H162     H        0.59660    0.55400    0.24910    1.000
    C246     C        0.58580    0.61620    0.26290    1.000
    C247     C        0.64940    0.57810    0.28340    1.000
    H163     H        0.64950    0.55650    0.27090    1.000
    C248     C        0.68330    0.57470    0.30310    1.000
    H164     H        0.70480    0.55150    0.30310    1.000
    C249     C        0.53450    0.65850    0.23740    1.000
    H165     H        0.52080    0.68640    0.23430    1.000
    C250     C        0.61620    0.63400    0.30250    1.000
    H166     H        0.59160    0.65320    0.30500    1.000
    C251     C        0.65150    0.63120    0.32160    1.000
    H167     H        0.64950    0.65040    0.33510    1.000
    C252     C        0.56330    0.65280    0.25860    1.000
    H168     H        0.56580    0.67680    0.26970    1.000
    Mo121    Mo       0.33286    0.55364    0.18969    1.000
    Mo122    Mo       0.23841    0.52817    0.10604    1.000
    Mo123    Mo       0.33452    0.64314    0.18708    1.000
    Mo124    Mo       0.39989    0.69774    0.14073    1.000
    Mo125    Mo       0.28354    0.70346    0.14040    1.000
    Mo126    Mo       0.23442    0.64442    0.09874    1.000
    Zn41     Zn       0.43834    0.58976    0.16526    1.000
    Zn42     Zn       0.23562    0.60080    0.15748    1.000
    O295     O        0.78710    0.09840    0.68083    1.000
    O296     O        0.88180    0.09750    0.68449    1.000
    O297     O        0.78490    0.18850    0.60411    1.000
    O298     O        0.73930    0.04180    0.64147    1.000
    O299     O        0.74010    0.15170    0.63539    1.000
    O300     O        0.93880    0.14480    0.64510    1.000
    O301     O        0.75800    0.13160    0.56875    1.000
    O302     O        0.78910    0.00780    0.67812    1.000
    O303     O        0.70800    0.08950    0.60407    1.000
    O304     O        0.83990    0.22910    0.63700    1.000
    O305     O        0.98710    0.09080    0.68933    1.000
    O306     O        0.78980    0.18650    0.67204    1.000
    O307     O        0.88330    0.18700    0.67641    1.000
    N22      N        0.18270    0.10500    0.82045    1.000
    C253     C        0.02740    0.12310    0.72190    1.000
    C254     C        0.04590    0.08320    0.72780    1.000
    H169     H        0.03720    0.05710    0.71940    1.000
    O308     O        0.96310    0.15700    0.70150    1.000
    C255     C        0.99330    0.12550    0.70170    1.000
    C256     C        0.11800    0.11160    0.78280    1.000
    C257     C        0.07940    0.08030    0.74730    1.000
    H170     H        0.09660    0.05400    0.74910    1.000
    C258     C        0.08580    0.11620    0.76290    1.000
    C259     C        0.14940    0.07810    0.78340    1.000
    H171     H        0.14950    0.05650    0.77090    1.000
    C260     C        0.18330    0.07470    0.80310    1.000
    H172     H        0.20480    0.05150    0.80310    1.000
    C261     C        0.03450    0.15850    0.73740    1.000
    H173     H        0.02080    0.18640    0.73430    1.000
    C262     C        0.11620    0.13400    0.80250    1.000
    H174     H        0.09160    0.15320    0.80500    1.000
    C263     C        0.15150    0.13120    0.82160    1.000
    H175     H        0.14950    0.15040    0.83510    1.000
    C264     C        0.06330    0.15280    0.75860    1.000
    H176     H        0.06580    0.17680    0.76970    1.000
    Mo127    Mo       0.83286    0.05364    0.68969    1.000
    Mo128    Mo       0.73841    0.02817    0.60604    1.000
    Mo129    Mo       0.83452    0.14314    0.68708    1.000
    Mo130    Mo       0.89989    0.19774    0.64073    1.000
    Mo131    Mo       0.78354    0.20346    0.64040    1.000
    Mo132    Mo       0.73442    0.14442    0.59874    1.000
    Zn43     Zn       0.93834    0.08976    0.66526    1.000
    Zn44     Zn       0.73562    0.10080    0.65748    1.000
    O309     O        0.34840    0.53710    0.06917    1.000
    O310     O        0.34750    0.63180    0.06551    1.000
    O311     O        0.43850    0.53490    0.14589    1.000
    O312     O        0.29180    0.48930    0.10853    1.000
    O313     O        0.40170    0.49010    0.11461    1.000
    O314     O        0.39480    0.68880    0.10490    1.000
    O315     O        0.38160    0.50800    0.18125    1.000
    O316     O        0.25780    0.53910    0.07188    1.000
    O317     O        0.33950    0.45800    0.14593    1.000
    O318     O        0.47910    0.58990    0.11300    1.000
    O319     O        0.34080    0.73710    0.06067    1.000
    O320     O        0.43650    0.53980    0.07796    1.000
    O321     O        0.43700    0.63330    0.07359    1.000
    N23      N        0.35500    0.93270    0.92955    1.000
    C265     C        0.37310    0.77740    0.02810    1.000
    C266     C        0.33320    0.79590    0.02220    1.000
    H177     H        0.30710    0.78720    0.03060    1.000
    O322     O        0.40700    0.71310    0.04850    1.000
    C267     C        0.37550    0.74330    0.04830    1.000
    C268     C        0.36160    0.86800    0.96720    1.000
    C269     C        0.33030    0.82940    0.00270    1.000
    H178     H        0.30400    0.84660    0.00090    1.000
    C270     C        0.36620    0.83580    0.98710    1.000
    C271     C        0.32810    0.89940    0.96660    1.000
    H179     H        0.30650    0.89950    0.97910    1.000
    C272     C        0.32470    0.93330    0.94690    1.000
    H180     H        0.30150    0.95480    0.94690    1.000
    C273     C        0.40850    0.78450    0.01260    1.000
    H181     H        0.43640    0.77080    0.01570    1.000
    C274     C        0.38400    0.86620    0.94750    1.000
    H182     H        0.40320    0.84160    0.94500    1.000
    C275     C        0.38120    0.90150    0.92840    1.000
    H183     H        0.40040    0.89950    0.91490    1.000
    C276     C        0.40280    0.81330    0.99140    1.000
    H184     H        0.42680    0.81580    0.98030    1.000
    Mo133    Mo       0.30364    0.58286    0.06031    1.000
    Mo134    Mo       0.27817    0.48841    0.14396    1.000
    Mo135    Mo       0.39314    0.58452    0.06292    1.000
    Mo136    Mo       0.44774    0.64989    0.10927    1.000
    Mo137    Mo       0.45346    0.53354    0.10960    1.000
    Mo138    Mo       0.39442    0.48442    0.15126    1.000
    Zn45     Zn       0.33976    0.68834    0.08474    1.000
    Zn46     Zn       0.35080    0.48562    0.09252    1.000
    O323     O        0.84840    0.03710    0.56917    1.000
    O324     O        0.84750    0.13180    0.56551    1.000
    O325     O        0.93850    0.03490    0.64589    1.000
    O326     O        0.79180    0.98930    0.60853    1.000
    O327     O        0.90170    0.99010    0.61461    1.000
    O328     O        0.89480    0.18880    0.60490    1.000
    O329     O        0.88160    0.00800    0.68125    1.000
    O330     O        0.75780    0.03910    0.57188    1.000
    O331     O        0.83950    0.95800    0.64593    1.000
    O332     O        0.97910    0.08990    0.61300    1.000
    O333     O        0.84080    0.23710    0.56067    1.000
    O334     O        0.93650    0.03980    0.57796    1.000
    O335     O        0.93700    0.13330    0.57359    1.000
    N24      N        0.85500    0.43270    0.42955    1.000
    C277     C        0.87310    0.27740    0.52810    1.000
    C278     C        0.83320    0.29590    0.52220    1.000
    H185     H        0.80710    0.28720    0.53060    1.000
    O336     O        0.90700    0.21310    0.54850    1.000
    C279     C        0.87550    0.24330    0.54830    1.000
    C280     C        0.86160    0.36800    0.46720    1.000
    C281     C        0.83030    0.32940    0.50270    1.000
    H186     H        0.80400    0.34660    0.50090    1.000
    C282     C        0.86620    0.33580    0.48710    1.000
    C283     C        0.82810    0.39940    0.46660    1.000
    H187     H        0.80650    0.39950    0.47910    1.000
    C284     C        0.82470    0.43330    0.44690    1.000
    H188     H        0.80150    0.45480    0.44690    1.000
    C285     C        0.90850    0.28450    0.51260    1.000
    H189     H        0.93640    0.27080    0.51570    1.000
    C286     C        0.88400    0.36620    0.44750    1.000
    H190     H        0.90320    0.34160    0.44500    1.000
    C287     C        0.88120    0.40150    0.42840    1.000
    H191     H        0.90040    0.39950    0.41490    1.000
    C288     C        0.90280    0.31330    0.49140    1.000
    H192     H        0.92680    0.31580    0.48030    1.000
    Mo139    Mo       0.80364    0.08286    0.56031    1.000
    Mo140    Mo       0.77817    0.98841    0.64396    1.000
    Mo141    Mo       0.89314    0.08452    0.56292    1.000
    Mo142    Mo       0.94774    0.14989    0.60927    1.000
    Mo143    Mo       0.95346    0.03354    0.60960    1.000
    Mo144    Mo       0.89442    0.98442    0.65126    1.000
    Zn47     Zn       0.83976    0.18834    0.58474    1.000
    Zn48     Zn       0.85080    0.98562    0.59252    1.000
    O337     O        0.71290    0.40160    0.81917    1.000
    O338     O        0.61820    0.40250    0.81551    1.000
    O339     O        0.71510    0.31150    0.89589    1.000
    O340     O        0.76070    0.45820    0.85853    1.000
    O341     O        0.75990    0.34830    0.86461    1.000
    O342     O        0.56120    0.35520    0.85490    1.000
    O343     O        0.74200    0.36840    0.93125    1.000
    O344     O        0.71090    0.49220    0.82188    1.000
    O345     O        0.79200    0.41050    0.89593    1.000
    O346     O        0.66010    0.27090    0.86300    1.000
    O347     O        0.51290    0.40920    0.81067    1.000
    O348     O        0.71020    0.31350    0.82796    1.000
    O349     O        0.61670    0.31300    0.82359    1.000
    N25      N        0.31730    0.39500    0.67955    1.000
    C289     C        0.47260    0.37690    0.77810    1.000
    C290     C        0.45410    0.41680    0.77220    1.000
    H193     H        0.46280    0.44290    0.78060    1.000
    O350     O        0.53690    0.34300    0.79850    1.000
    C291     C        0.50670    0.37450    0.79830    1.000
    C292     C        0.38200    0.38840    0.71720    1.000
    C293     C        0.42060    0.41970    0.75270    1.000
    H194     H        0.40340    0.44600    0.75090    1.000
    C294     C        0.41420    0.38380    0.73710    1.000
    C295     C        0.35060    0.42190    0.71660    1.000
    H195     H        0.35050    0.44350    0.72910    1.000
    C296     C        0.31670    0.42530    0.69690    1.000
    H196     H        0.29520    0.44850    0.69690    1.000
    C297     C        0.46550    0.34150    0.76260    1.000
    H197     H        0.47920    0.31360    0.76570    1.000
    C298     C        0.38380    0.36600    0.69750    1.000
    H198     H        0.40840    0.34680    0.69500    1.000
    C299     C        0.34850    0.36880    0.67840    1.000
    H199     H        0.35050    0.34960    0.66490    1.000
    C300     C        0.43670    0.34720    0.74140    1.000
    H200     H        0.43420    0.32320    0.73030    1.000
    Mo145    Mo       0.66714    0.44636    0.81031    1.000
    Mo146    Mo       0.76159    0.47183    0.89396    1.000
    Mo147    Mo       0.66548    0.35686    0.81292    1.000
    Mo148    Mo       0.60011    0.30226    0.85927    1.000
    Mo149    Mo       0.71646    0.29654    0.85960    1.000
    Mo150    Mo       0.76558    0.35558    0.90126    1.000
    Zn49     Zn       0.56166    0.41024    0.83474    1.000
    Zn50     Zn       0.76438    0.39920    0.84252    1.000
    O351     O        0.21290    0.90160    0.31917    1.000
    O352     O        0.11820    0.90250    0.31551    1.000
    O353     O        0.21510    0.81150    0.39589    1.000
    O354     O        0.26070    0.95820    0.35853    1.000
    O355     O        0.25990    0.84830    0.36461    1.000
    O356     O        0.06120    0.85520    0.35490    1.000
    O357     O        0.24200    0.86840    0.43125    1.000
    O358     O        0.21090    0.99220    0.32188    1.000
    O359     O        0.29200    0.91050    0.39593    1.000
    O360     O        0.16010    0.77090    0.36300    1.000
    O361     O        0.01290    0.90920    0.31067    1.000
    O362     O        0.21020    0.81350    0.32796    1.000
    O363     O        0.11670    0.81300    0.32359    1.000
    N26      N        0.81730    0.89500    0.17955    1.000
    C301     C        0.97260    0.87690    0.27810    1.000
    C302     C        0.95410    0.91680    0.27220    1.000
    H201     H        0.96280    0.94290    0.28060    1.000
    O364     O        0.03690    0.84300    0.29850    1.000
    C303     C        0.00670    0.87450    0.29830    1.000
    C304     C        0.88200    0.88840    0.21720    1.000
    C305     C        0.92060    0.91970    0.25270    1.000
    H202     H        0.90340    0.94600    0.25090    1.000
    C306     C        0.91420    0.88380    0.23710    1.000
    C307     C        0.85060    0.92190    0.21660    1.000
    H203     H        0.85050    0.94350    0.22910    1.000
    C308     C        0.81670    0.92530    0.19690    1.000
    H204     H        0.79520    0.94850    0.19690    1.000
    C309     C        0.96550    0.84150    0.26260    1.000
    H205     H        0.97920    0.81360    0.26570    1.000
    C310     C        0.88380    0.86600    0.19750    1.000
    H206     H        0.90840    0.84680    0.19500    1.000
    C311     C        0.84850    0.86880    0.17840    1.000
    H207     H        0.85050    0.84960    0.16490    1.000
    C312     C        0.93670    0.84720    0.24140    1.000
    H208     H        0.93420    0.82320    0.23030    1.000
    Mo151    Mo       0.16714    0.94636    0.31031    1.000
    Mo152    Mo       0.26159    0.97183    0.39396    1.000
    Mo153    Mo       0.16548    0.85686    0.31292    1.000
    Mo154    Mo       0.10011    0.80226    0.35927    1.000
    Mo155    Mo       0.21646    0.79654    0.35960    1.000
    Mo156    Mo       0.26558    0.85558    0.40126    1.000
    Zn51     Zn       0.06166    0.91024    0.33474    1.000
    Zn52     Zn       0.26438    0.89920    0.34252    1.000
    O365     O        0.65160    0.46290    0.93083    1.000
    O366     O        0.65250    0.36820    0.93449    1.000
    O367     O        0.56150    0.46510    0.85411    1.000
    O368     O        0.70820    0.51070    0.89147    1.000
    O369     O        0.59830    0.50990    0.88539    1.000
    O370     O        0.60520    0.31120    0.89510    1.000
    O371     O        0.61840    0.49200    0.81875    1.000
    O372     O        0.74220    0.46090    0.92812    1.000
    O373     O        0.66050    0.54200    0.85407    1.000
    O374     O        0.52090    0.41010    0.88700    1.000
    O375     O        0.65920    0.26290    0.93933    1.000
    O376     O        0.56350    0.46020    0.92204    1.000
    O377     O        0.56300    0.36670    0.92641    1.000
    N27      N        0.64500    0.06730    0.07045    1.000
    C313     C        0.62690    0.22260    0.97190    1.000
    C314     C        0.66680    0.20410    0.97780    1.000
    H209     H        0.69290    0.21280    0.96940    1.000
    O378     O        0.59300    0.28690    0.95150    1.000
    C315     C        0.62450    0.25670    0.95170    1.000
    C316     C        0.63840    0.13200    0.03280    1.000
    C317     C        0.66970    0.17060    0.99730    1.000
    H210     H        0.69600    0.15340    0.99910    1.000
    C318     C        0.63380    0.16420    0.01290    1.000
    C319     C        0.67190    0.10060    0.03340    1.000
    H211     H        0.69350    0.10050    0.02090    1.000
    C320     C        0.67530    0.06670    0.05310    1.000
    H212     H        0.69850    0.04520    0.05310    1.000
    C321     C        0.59150    0.21550    0.98740    1.000
    H213     H        0.56360    0.22920    0.98430    1.000
    C322     C        0.61600    0.13380    0.05250    1.000
    H214     H        0.59680    0.15840    0.05500    1.000
    C323     C        0.61880    0.09850    0.07160    1.000
    H215     H        0.59960    0.10050    0.08510    1.000
    C324     C        0.59720    0.18670    0.00860    1.000
    H216     H        0.57320    0.18420    0.01970    1.000
    Mo157    Mo       0.69636    0.41714    0.93969    1.000
    Mo158    Mo       0.72183    0.51159    0.85604    1.000
    Mo159    Mo       0.60686    0.41548    0.93708    1.000
    Mo160    Mo       0.55226    0.35011    0.89073    1.000
    Mo161    Mo       0.54654    0.46646    0.89040    1.000
    Mo162    Mo       0.60558    0.51558    0.84874    1.000
    Zn53     Zn       0.66024    0.31166    0.91526    1.000
    Zn54     Zn       0.64920    0.51438    0.90748    1.000
    O379     O        0.15160    0.96290    0.43083    1.000
    O380     O        0.15250    0.86820    0.43449    1.000
    O381     O        0.06150    0.96510    0.35411    1.000
    O382     O        0.20820    0.01070    0.39147    1.000
    O383     O        0.09830    0.00990    0.38539    1.000
    O384     O        0.10520    0.81120    0.39510    1.000
    O385     O        0.11840    0.99200    0.31875    1.000
    O386     O        0.24220    0.96090    0.42812    1.000
    O387     O        0.16050    0.04200    0.35407    1.000
    O388     O        0.02090    0.91010    0.38700    1.000
    O389     O        0.15920    0.76290    0.43933    1.000
    O390     O        0.06350    0.96020    0.42204    1.000
    O391     O        0.06300    0.86670    0.42641    1.000
    N28      N        0.14500    0.56730    0.57045    1.000
    C325     C        0.12690    0.72260    0.47190    1.000
    C326     C        0.16680    0.70410    0.47780    1.000
    H217     H        0.19290    0.71280    0.46940    1.000
    O392     O        0.09300    0.78690    0.45150    1.000
    C327     C        0.12450    0.75670    0.45170    1.000
    C328     C        0.13840    0.63200    0.53280    1.000
    C329     C        0.16970    0.67060    0.49730    1.000
    H218     H        0.19600    0.65340    0.49910    1.000
    C330     C        0.13380    0.66420    0.51290    1.000
    C331     C        0.17190    0.60060    0.53340    1.000
    H219     H        0.19350    0.60050    0.52090    1.000
    C332     C        0.17530    0.56670    0.55310    1.000
    H220     H        0.19850    0.54520    0.55310    1.000
    C333     C        0.09150    0.71550    0.48740    1.000
    H221     H        0.06360    0.72920    0.48430    1.000
    C334     C        0.11600    0.63380    0.55250    1.000
    H222     H        0.09680    0.65840    0.55500    1.000
    C335     C        0.11880    0.59850    0.57160    1.000
    H223     H        0.09960    0.60050    0.58510    1.000
    C336     C        0.09720    0.68670    0.50860    1.000
    H224     H        0.07320    0.68420    0.51970    1.000
    Mo163    Mo       0.19636    0.91714    0.43969    1.000
    Mo164    Mo       0.22183    0.01159    0.35604    1.000
    Mo165    Mo       0.10686    0.91548    0.43708    1.000
    Mo166    Mo       0.05226    0.85011    0.39073    1.000
    Mo167    Mo       0.04654    0.96646    0.39040    1.000
    Mo168    Mo       0.10558    0.01558    0.34874    1.000
    Zn55     Zn       0.16024    0.81166    0.41526    1.000
    Zn56     Zn       0.14920    0.01438    0.40748    1.000
    O393     O        0.21290    0.40160    0.68083    1.000
    O394     O        0.11820    0.40250    0.68449    1.000
    O395     O        0.21510    0.31150    0.60411    1.000
    O396     O        0.26070    0.45820    0.64147    1.000
    O397     O        0.25990    0.34830    0.63539    1.000
    O398     O        0.06120    0.35520    0.64510    1.000
    O399     O        0.24200    0.36840    0.56875    1.000
    O400     O        0.21090    0.49220    0.67812    1.000
    O401     O        0.29200    0.41050    0.60407    1.000
    O402     O        0.16010    0.27090    0.63700    1.000
    O403     O        0.01290    0.40920    0.68933    1.000
    O404     O        0.21020    0.31350    0.67204    1.000
    O405     O        0.11670    0.31300    0.67641    1.000
    N29      N        0.81730    0.39500    0.82045    1.000
    C337     C        0.97260    0.37690    0.72190    1.000
    C338     C        0.95410    0.41680    0.72780    1.000
    H225     H        0.96280    0.44290    0.71940    1.000
    O406     O        0.03690    0.34300    0.70150    1.000
    C339     C        0.00670    0.37450    0.70170    1.000
    C340     C        0.88200    0.38840    0.78280    1.000
    C341     C        0.92060    0.41970    0.74730    1.000
    H226     H        0.90340    0.44600    0.74910    1.000
    C342     C        0.91420    0.38380    0.76290    1.000
    C343     C        0.85060    0.42190    0.78340    1.000
    H227     H        0.85050    0.44350    0.77090    1.000
    C344     C        0.81670    0.42530    0.80310    1.000
    H228     H        0.79520    0.44850    0.80310    1.000
    C345     C        0.96550    0.34150    0.73740    1.000
    H229     H        0.97920    0.31360    0.73430    1.000
    C346     C        0.88380    0.36600    0.80250    1.000
    H230     H        0.90840    0.34680    0.80500    1.000
    C347     C        0.84850    0.36880    0.82160    1.000
    H231     H        0.85050    0.34960    0.83510    1.000
    C348     C        0.93670    0.34720    0.75860    1.000
    H232     H        0.93420    0.32320    0.76970    1.000
    Mo169    Mo       0.16714    0.44636    0.68969    1.000
    Mo170    Mo       0.26159    0.47183    0.60604    1.000
    Mo171    Mo       0.16548    0.35686    0.68708    1.000
    Mo172    Mo       0.10011    0.30226    0.64073    1.000
    Mo173    Mo       0.21646    0.29654    0.64040    1.000
    Mo174    Mo       0.26558    0.35558    0.59874    1.000
    Zn57     Zn       0.06166    0.41024    0.66526    1.000
    Zn58     Zn       0.26438    0.39920    0.65748    1.000
    O407     O        0.71290    0.90160    0.18083    1.000
    O408     O        0.61820    0.90250    0.18449    1.000
    O409     O        0.71510    0.81150    0.10411    1.000
    O410     O        0.76070    0.95820    0.14147    1.000
    O411     O        0.75990    0.84830    0.13539    1.000
    O412     O        0.56120    0.85520    0.14510    1.000
    O413     O        0.74200    0.86840    0.06875    1.000
    O414     O        0.71090    0.99220    0.17812    1.000
    O415     O        0.79200    0.91050    0.10407    1.000
    O416     O        0.66010    0.77090    0.13700    1.000
    O417     O        0.51290    0.90920    0.18933    1.000
    O418     O        0.71020    0.81350    0.17204    1.000
    O419     O        0.61670    0.81300    0.17641    1.000
    N30      N        0.31730    0.89500    0.32045    1.000
    C349     C        0.47260    0.87690    0.22190    1.000
    C350     C        0.45410    0.91680    0.22780    1.000
    H233     H        0.46280    0.94290    0.21940    1.000
    O420     O        0.53690    0.84300    0.20150    1.000
    C351     C        0.50670    0.87450    0.20170    1.000
    C352     C        0.38200    0.88840    0.28280    1.000
    C353     C        0.42060    0.91970    0.24730    1.000
    H234     H        0.40340    0.94600    0.24910    1.000
    C354     C        0.41420    0.88380    0.26290    1.000
    C355     C        0.35060    0.92190    0.28340    1.000
    H235     H        0.35050    0.94350    0.27090    1.000
    C356     C        0.31670    0.92530    0.30310    1.000
    H236     H        0.29520    0.94850    0.30310    1.000
    C357     C        0.46550    0.84150    0.23740    1.000
    H237     H        0.47920    0.81360    0.23430    1.000
    C358     C        0.38380    0.86600    0.30250    1.000
    H238     H        0.40840    0.84680    0.30500    1.000
    C359     C        0.34850    0.86880    0.32160    1.000
    H239     H        0.35050    0.84960    0.33510    1.000
    C360     C        0.43670    0.84720    0.25860    1.000
    H240     H        0.43420    0.82320    0.26970    1.000
    Mo175    Mo       0.66714    0.94636    0.18969    1.000
    Mo176    Mo       0.76159    0.97183    0.10604    1.000
    Mo177    Mo       0.66548    0.85686    0.18708    1.000
    Mo178    Mo       0.60011    0.80226    0.14073    1.000
    Mo179    Mo       0.71646    0.79654    0.14040    1.000
    Mo180    Mo       0.76558    0.85558    0.09874    1.000
    Zn59     Zn       0.56166    0.91024    0.16526    1.000
    Zn60     Zn       0.76438    0.89920    0.15748    1.000
    O421     O        0.15160    0.46290    0.56917    1.000
    O422     O        0.15250    0.36820    0.56551    1.000
    O423     O        0.06150    0.46510    0.64589    1.000
    O424     O        0.20820    0.51070    0.60853    1.000
    O425     O        0.09830    0.50990    0.61461    1.000
    O426     O        0.10520    0.31120    0.60490    1.000
    O427     O        0.11840    0.49200    0.68125    1.000
    O428     O        0.24220    0.46090    0.57188    1.000
    O429     O        0.16050    0.54200    0.64593    1.000
    O430     O        0.02090    0.41010    0.61300    1.000
    O431     O        0.15920    0.26290    0.56067    1.000
    O432     O        0.06350    0.46020    0.57796    1.000
    O433     O        0.06300    0.36670    0.57359    1.000
    N31      N        0.14500    0.06730    0.42955    1.000
    C361     C        0.12690    0.22260    0.52810    1.000
    C362     C        0.16680    0.20410    0.52220    1.000
    H241     H        0.19290    0.21280    0.53060    1.000
    O434     O        0.09300    0.28690    0.54850    1.000
    C363     C        0.12450    0.25670    0.54830    1.000
    C364     C        0.13840    0.13200    0.46720    1.000
    C365     C        0.16970    0.17060    0.50270    1.000
    H242     H        0.19600    0.15340    0.50090    1.000
    C366     C        0.13380    0.16420    0.48710    1.000
    C367     C        0.17190    0.10060    0.46660    1.000
    H243     H        0.19350    0.10050    0.47910    1.000
    C368     C        0.17530    0.06670    0.44690    1.000
    H244     H        0.19850    0.04520    0.44690    1.000
    C369     C        0.09150    0.21550    0.51260    1.000
    H245     H        0.06360    0.22920    0.51570    1.000
    C370     C        0.11600    0.13380    0.44750    1.000
    H246     H        0.09680    0.15840    0.44500    1.000
    C371     C        0.11880    0.09850    0.42840    1.000
    H247     H        0.09960    0.10050    0.41490    1.000
    C372     C        0.09720    0.18670    0.49140    1.000
    H248     H        0.07320    0.18420    0.48030    1.000
    Mo181    Mo       0.19636    0.41714    0.56031    1.000
    Mo182    Mo       0.22183    0.51159    0.64396    1.000
    Mo183    Mo       0.10686    0.41548    0.56292    1.000
    Mo184    Mo       0.05226    0.35011    0.60927    1.000
    Mo185    Mo       0.04654    0.46646    0.60960    1.000
    Mo186    Mo       0.10558    0.51558    0.65126    1.000
    Zn61     Zn       0.16024    0.31166    0.58474    1.000
    Zn62     Zn       0.14920    0.51438    0.59252    1.000
    O435     O        0.65160    0.96290    0.06917    1.000
    O436     O        0.65250    0.86820    0.06551    1.000
    O437     O        0.56150    0.96510    0.14589    1.000
    O438     O        0.70820    0.01070    0.10853    1.000
    O439     O        0.59830    0.00990    0.11461    1.000
    O440     O        0.60520    0.81120    0.10490    1.000
    O441     O        0.61840    0.99200    0.18125    1.000
    O442     O        0.74220    0.96090    0.07188    1.000
    O443     O        0.66050    0.04200    0.14593    1.000
    O444     O        0.52090    0.91010    0.11300    1.000
    O445     O        0.65920    0.76290    0.06067    1.000
    O446     O        0.56350    0.96020    0.07796    1.000
    O447     O        0.56300    0.86670    0.07359    1.000
    N32      N        0.64500    0.56730    0.92955    1.000
    C373     C        0.62690    0.72260    0.02810    1.000
    C374     C        0.66680    0.70410    0.02220    1.000
    H249     H        0.69290    0.71280    0.03060    1.000
    O448     O        0.59300    0.78690    0.04850    1.000
    C375     C        0.62450    0.75670    0.04830    1.000
    C376     C        0.63840    0.63200    0.96720    1.000
    C377     C        0.66970    0.67060    0.00270    1.000
    H250     H        0.69600    0.65340    0.00090    1.000
    C378     C        0.63380    0.66420    0.98710    1.000
    C379     C        0.67190    0.60060    0.96660    1.000
    H251     H        0.69350    0.60050    0.97910    1.000
    C380     C        0.67530    0.56670    0.94690    1.000
    H252     H        0.69850    0.54520    0.94690    1.000
    C381     C        0.59150    0.71550    0.01260    1.000
    H253     H        0.56360    0.72920    0.01570    1.000
    C382     C        0.61600    0.63380    0.94750    1.000
    H254     H        0.59680    0.65840    0.94500    1.000
    C383     C        0.61880    0.59850    0.92840    1.000
    H255     H        0.59960    0.60050    0.91490    1.000
    C384     C        0.59720    0.68670    0.99140    1.000
    H256     H        0.57320    0.68420    0.98030    1.000
    Mo187    Mo       0.69636    0.91714    0.06031    1.000
    Mo188    Mo       0.72183    0.01159    0.14396    1.000
    Mo189    Mo       0.60686    0.91548    0.06292    1.000
    Mo190    Mo       0.55226    0.85011    0.10927    1.000
    Mo191    Mo       0.54654    0.96646    0.10960    1.000
    Mo192    Mo       0.60558    0.01558    0.15126    1.000
    Zn63     Zn       0.66024    0.81166    0.08474    1.000
    Zn64     Zn       0.64920    0.01438    0.09252    1.000
