# CIF file generated by openbabel 3.1.0, see https://openbabel.org
data_I
_chemical_name_common 'image0'
_cell_length_a 37.322
_cell_length_b 72.64
_cell_length_c 7.074
_cell_angle_alpha 90
_cell_angle_beta 90
_cell_angle_gamma 90
_space_group_name_H-M_alt 'P 1'
_space_group_name_Hall 'P 1'
loop_
    _symmetry_equiv_pos_as_xyz
    x,y,z
loop_
    _atom_site_label
    _atom_site_type_symbol
    _atom_site_fract_x
    _atom_site_fract_y
    _atom_site_fract_z
    _atom_site_occupancy
    Cd1      Cd       0.38144    0.06951    0.49306    1.000
    C1       C        0.15460    0.06193    0.37500    1.000
    C2       C        0.17810    0.06366    0.19760    1.000
    H1       H        0.17520    0.05300    0.11620    1.000
    H2       H        0.17200    0.07470    0.12680    1.000
    C3       C        0.24030    0.06633    0.13750    1.000
    C4       C        0.23520    0.06900    0.94500    1.000
    H3       H        0.21210    0.06980    0.89670    1.000
    C5       C        0.26440    0.07050    0.82600    1.000
    H4       H        0.26090    0.07230    0.69700    1.000
    C6       C        0.29870    0.06943    0.89680    1.000
    C7       C        0.30390    0.06668    0.08970    1.000
    H5       H        0.32700    0.06590    0.13830    1.000
    C8       C        0.27450    0.06510    0.20970    1.000
    H6       H        0.27800    0.06320    0.33850    1.000
    C9       C        0.33110    0.06798    0.76380    1.000
    C10      C        0.16250    0.04100    0.43900    1.000
    H7       H        0.15370    0.03240    0.34540    1.000
    H8       H        0.18800    0.03910    0.45670    1.000
    C11      C        0.14040    0.02060    0.65400    1.000
    C12      C        0.14580    0.00560    0.53500    1.000
    H9       H        0.15280    0.00750    0.41010    1.000
    C13      C        0.14070    0.98780    0.60200    1.000
    H10      H        0.14430    0.97780    0.52250    1.000
    C14      C        0.13020    0.98504    0.78700    1.000
    C15      C        0.12480    0.00010    0.90700    1.000
    H11      H        0.11780    0.99820    0.03150    1.000
    C16      C        0.12990    0.01780    0.84000    1.000
    H12      H        0.12630    0.02780    0.91950    1.000
    C17      C        0.12530    0.96701    0.86900    1.000
    C18      C        0.16300    0.07352    0.55500    1.000
    H13      H        0.14530    0.07150    0.65380    1.000
    H14      H        0.18670    0.07090    0.60410    1.000
    C19      C        0.15520    0.10430    0.64400    1.000
    C20      C        0.16130    0.10160    0.83400    1.000
    H15      H        0.17030    0.09030    0.87560    1.000
    C21      C        0.15430    0.11530    0.96300    1.000
    H16      H        0.15860    0.11330    0.09060    1.000
    C22      C        0.14090    0.13210    0.90200    1.000
    C23      C        0.13500    0.13480    0.71100    1.000
    H17      H        0.12630    0.14600    0.66870    1.000
    C24      C        0.14170    0.12100    0.58300    1.000
    H18      H        0.13730    0.12300    0.45550    1.000
    C25      C        0.13480    0.14856    0.02600    1.000
    C26      C        0.11400    0.06480    0.32200    1.000
    H19      H        0.09950    0.05720    0.40440    1.000
    H20      H        0.10760    0.07750    0.34550    1.000
    C27      C        0.07070    0.06160    0.08100    1.000
    C28      C        0.04390    0.06930    0.18800    1.000
    H21      H        0.04920    0.07400    0.30710    1.000
    C29      C        0.00930    0.06990    0.12200    1.000
    H22      H        0.99140    0.07510    0.19600    1.000
    C30      C        0.00100    0.06280    0.94600    1.000
    C31      C        0.02800    0.05510    0.83800    1.000
    H23      H        0.02270    0.05030    0.71930    1.000
    C32      C        0.06240    0.05450    0.90400    1.000
    H24      H        0.08040    0.04940    0.82950    1.000
    C33      C        0.96320    0.06310    0.88600    1.000
    O1       O        0.21417    0.06472    0.26720    1.000
    O2       O        0.36160    0.06743    0.81260    1.000
    O3       O        0.32280    0.06945    0.58330    1.000
    O4       O        0.14450    0.03929    0.60500    1.000
    O5       O        0.11730    0.96529    0.03290    1.000
    O6       O        0.12610    0.95312    0.76450    1.000
    O7       O        0.16060    0.09172    0.47780    1.000
    O8       O        0.13340    0.14660    0.20600    1.000
    O9       O        0.13370    0.16441    0.95620    1.000
    O10      O        0.10620    0.06083    0.14740    1.000
    O11      O        0.94030    0.06752    0.02110    1.000
    O12      O        0.95540    0.06137    0.70450    1.000
    Cd2      Cd       0.40744    0.06273    0.03402    1.000
    Cd3      Cd       0.38144    0.56951    0.99306    1.000
    C34      C        0.15460    0.56193    0.87500    1.000
    C35      C        0.17810    0.56366    0.69760    1.000
    H25      H        0.17520    0.55300    0.61620    1.000
    H26      H        0.17200    0.57470    0.62680    1.000
    C36      C        0.24030    0.56633    0.63750    1.000
    C37      C        0.23520    0.56900    0.44500    1.000
    H27      H        0.21210    0.56980    0.39670    1.000
    C38      C        0.26440    0.57050    0.32600    1.000
    H28      H        0.26090    0.57230    0.19700    1.000
    C39      C        0.29870    0.56943    0.39680    1.000
    C40      C        0.30390    0.56668    0.58970    1.000
    H29      H        0.32700    0.56590    0.63830    1.000
    C41      C        0.27450    0.56510    0.70970    1.000
    H30      H        0.27800    0.56320    0.83850    1.000
    C42      C        0.33110    0.56798    0.26380    1.000
    C43      C        0.16250    0.54100    0.93900    1.000
    H31      H        0.15370    0.53240    0.84540    1.000
    H32      H        0.18800    0.53910    0.95670    1.000
    C44      C        0.14040    0.52060    0.15400    1.000
    C45      C        0.14580    0.50560    0.03500    1.000
    H33      H        0.15280    0.50750    0.91010    1.000
    C46      C        0.14070    0.48780    0.10200    1.000
    H34      H        0.14430    0.47780    0.02250    1.000
    C47      C        0.13020    0.48504    0.28700    1.000
    C48      C        0.12480    0.50010    0.40700    1.000
    H35      H        0.11780    0.49820    0.53150    1.000
    C49      C        0.12990    0.51780    0.34000    1.000
    H36      H        0.12630    0.52780    0.41950    1.000
    C50      C        0.12530    0.46701    0.36900    1.000
    C51      C        0.16300    0.57352    0.05500    1.000
    H37      H        0.14530    0.57150    0.15380    1.000
    H38      H        0.18670    0.57090    0.10410    1.000
    C52      C        0.15520    0.60430    0.14400    1.000
    C53      C        0.16130    0.60160    0.33400    1.000
    H39      H        0.17030    0.59030    0.37560    1.000
    C54      C        0.15430    0.61530    0.46300    1.000
    H40      H        0.15860    0.61330    0.59060    1.000
    C55      C        0.14090    0.63210    0.40200    1.000
    C56      C        0.13500    0.63480    0.21100    1.000
    H41      H        0.12630    0.64600    0.16870    1.000
    C57      C        0.14170    0.62100    0.08300    1.000
    H42      H        0.13730    0.62300    0.95550    1.000
    C58      C        0.13480    0.64856    0.52600    1.000
    C59      C        0.11400    0.56480    0.82200    1.000
    H43      H        0.09950    0.55720    0.90440    1.000
    H44      H        0.10760    0.57750    0.84550    1.000
    C60      C        0.07070    0.56160    0.58100    1.000
    C61      C        0.04390    0.56930    0.68800    1.000
    H45      H        0.04920    0.57400    0.80710    1.000
    C62      C        0.00930    0.56990    0.62200    1.000
    H46      H        0.99140    0.57510    0.69600    1.000
    C63      C        0.00100    0.56280    0.44600    1.000
    C64      C        0.02800    0.55510    0.33800    1.000
    H47      H        0.02270    0.55030    0.21930    1.000
    C65      C        0.06240    0.55450    0.40400    1.000
    H48      H        0.08040    0.54940    0.32950    1.000
    C66      C        0.96320    0.56310    0.38600    1.000
    O13      O        0.21417    0.56472    0.76720    1.000
    O14      O        0.36160    0.56743    0.31260    1.000
    O15      O        0.32280    0.56945    0.08330    1.000
    O16      O        0.14450    0.53929    0.10500    1.000
    O17      O        0.11730    0.46529    0.53290    1.000
    O18      O        0.12610    0.45312    0.26450    1.000
    O19      O        0.16060    0.59172    0.97780    1.000
    O20      O        0.13340    0.64660    0.70600    1.000
    O21      O        0.13370    0.66441    0.45620    1.000
    O22      O        0.10620    0.56083    0.64740    1.000
    O23      O        0.94030    0.56752    0.52110    1.000
    O24      O        0.95540    0.56137    0.20450    1.000
    Cd4      Cd       0.40744    0.56273    0.53402    1.000
    Cd5      Cd       0.88144    0.06951    0.99306    1.000
    C67      C        0.65460    0.06193    0.87500    1.000
    C68      C        0.67810    0.06366    0.69760    1.000
    H49      H        0.67520    0.05300    0.61620    1.000
    H50      H        0.67200    0.07470    0.62680    1.000
    C69      C        0.74030    0.06633    0.63750    1.000
    C70      C        0.73520    0.06900    0.44500    1.000
    H51      H        0.71210    0.06980    0.39670    1.000
    C71      C        0.76440    0.07050    0.32600    1.000
    H52      H        0.76090    0.07230    0.19700    1.000
    C72      C        0.79870    0.06943    0.39680    1.000
    C73      C        0.80390    0.06668    0.58970    1.000
    H53      H        0.82700    0.06590    0.63830    1.000
    C74      C        0.77450    0.06510    0.70970    1.000
    H54      H        0.77800    0.06320    0.83850    1.000
    C75      C        0.83110    0.06798    0.26380    1.000
    C76      C        0.66250    0.04100    0.93900    1.000
    H55      H        0.65370    0.03240    0.84540    1.000
    H56      H        0.68800    0.03910    0.95670    1.000
    C77      C        0.64040    0.02060    0.15400    1.000
    C78      C        0.64580    0.00560    0.03500    1.000
    H57      H        0.65280    0.00750    0.91010    1.000
    C79      C        0.64070    0.98780    0.10200    1.000
    H58      H        0.64430    0.97780    0.02250    1.000
    C80      C        0.63020    0.98504    0.28700    1.000
    C81      C        0.62480    0.00010    0.40700    1.000
    H59      H        0.61780    0.99820    0.53150    1.000
    C82      C        0.62990    0.01780    0.34000    1.000
    H60      H        0.62630    0.02780    0.41950    1.000
    C83      C        0.62530    0.96701    0.36900    1.000
    C84      C        0.66300    0.07352    0.05500    1.000
    H61      H        0.64530    0.07150    0.15380    1.000
    H62      H        0.68670    0.07090    0.10410    1.000
    C85      C        0.65520    0.10430    0.14400    1.000
    C86      C        0.66130    0.10160    0.33400    1.000
    H63      H        0.67030    0.09030    0.37560    1.000
    C87      C        0.65430    0.11530    0.46300    1.000
    H64      H        0.65860    0.11330    0.59060    1.000
    C88      C        0.64090    0.13210    0.40200    1.000
    C89      C        0.63500    0.13480    0.21100    1.000
    H65      H        0.62630    0.14600    0.16870    1.000
    C90      C        0.64170    0.12100    0.08300    1.000
    H66      H        0.63730    0.12300    0.95550    1.000
    C91      C        0.63480    0.14856    0.52600    1.000
    C92      C        0.61400    0.06480    0.82200    1.000
    H67      H        0.59950    0.05720    0.90440    1.000
    H68      H        0.60760    0.07750    0.84550    1.000
    C93      C        0.57070    0.06160    0.58100    1.000
    C94      C        0.54390    0.06930    0.68800    1.000
    H69      H        0.54920    0.07400    0.80710    1.000
    C95      C        0.50930    0.06990    0.62200    1.000
    H70      H        0.49140    0.07510    0.69600    1.000
    C96      C        0.50100    0.06280    0.44600    1.000
    C97      C        0.52800    0.05510    0.33800    1.000
    H71      H        0.52270    0.05030    0.21930    1.000
    C98      C        0.56240    0.05450    0.40400    1.000
    H72      H        0.58040    0.04940    0.32950    1.000
    C99      C        0.46320    0.06310    0.38600    1.000
    O25      O        0.71417    0.06472    0.76720    1.000
    O26      O        0.86160    0.06743    0.31260    1.000
    O27      O        0.82280    0.06945    0.08330    1.000
    O28      O        0.64450    0.03929    0.10500    1.000
    O29      O        0.61730    0.96529    0.53290    1.000
    O30      O        0.62610    0.95312    0.26450    1.000
    O31      O        0.66060    0.09172    0.97780    1.000
    O32      O        0.63340    0.14660    0.70600    1.000
    O33      O        0.63370    0.16441    0.45620    1.000
    O34      O        0.60620    0.06083    0.64740    1.000
    O35      O        0.44030    0.06752    0.52110    1.000
    O36      O        0.45540    0.06137    0.20450    1.000
    Cd6      Cd       0.90744    0.06273    0.53402    1.000
    Cd7      Cd       0.88144    0.56951    0.49306    1.000
    C100     C        0.65460    0.56193    0.37500    1.000
    C101     C        0.67810    0.56366    0.19760    1.000
    H73      H        0.67520    0.55300    0.11620    1.000
    H74      H        0.67200    0.57470    0.12680    1.000
    C102     C        0.74030    0.56633    0.13750    1.000
    C103     C        0.73520    0.56900    0.94500    1.000
    H75      H        0.71210    0.56980    0.89670    1.000
    C104     C        0.76440    0.57050    0.82600    1.000
    H76      H        0.76090    0.57230    0.69700    1.000
    C105     C        0.79870    0.56943    0.89680    1.000
    C106     C        0.80390    0.56668    0.08970    1.000
    H77      H        0.82700    0.56590    0.13830    1.000
    C107     C        0.77450    0.56510    0.20970    1.000
    H78      H        0.77800    0.56320    0.33850    1.000
    C108     C        0.83110    0.56798    0.76380    1.000
    C109     C        0.66250    0.54100    0.43900    1.000
    H79      H        0.65370    0.53240    0.34540    1.000
    H80      H        0.68800    0.53910    0.45670    1.000
    C110     C        0.64040    0.52060    0.65400    1.000
    C111     C        0.64580    0.50560    0.53500    1.000
    H81      H        0.65280    0.50750    0.41010    1.000
    C112     C        0.64070    0.48780    0.60200    1.000
    H82      H        0.64430    0.47780    0.52250    1.000
    C113     C        0.63020    0.48504    0.78700    1.000
    C114     C        0.62480    0.50010    0.90700    1.000
    H83      H        0.61780    0.49820    0.03150    1.000
    C115     C        0.62990    0.51780    0.84000    1.000
    H84      H        0.62630    0.52780    0.91950    1.000
    C116     C        0.62530    0.46701    0.86900    1.000
    C117     C        0.66300    0.57352    0.55500    1.000
    H85      H        0.64530    0.57150    0.65380    1.000
    H86      H        0.68670    0.57090    0.60410    1.000
    C118     C        0.65520    0.60430    0.64400    1.000
    C119     C        0.66130    0.60160    0.83400    1.000
    H87      H        0.67030    0.59030    0.87560    1.000
    C120     C        0.65430    0.61530    0.96300    1.000
    H88      H        0.65860    0.61330    0.09060    1.000
    C121     C        0.64090    0.63210    0.90200    1.000
    C122     C        0.63500    0.63480    0.71100    1.000
    H89      H        0.62630    0.64600    0.66870    1.000
    C123     C        0.64170    0.62100    0.58300    1.000
    H90      H        0.63730    0.62300    0.45550    1.000
    C124     C        0.63480    0.64856    0.02600    1.000
    C125     C        0.61400    0.56480    0.32200    1.000
    H91      H        0.59950    0.55720    0.40440    1.000
    H92      H        0.60760    0.57750    0.34550    1.000
    C126     C        0.57070    0.56160    0.08100    1.000
    C127     C        0.54390    0.56930    0.18800    1.000
    H93      H        0.54920    0.57400    0.30710    1.000
    C128     C        0.50930    0.56990    0.12200    1.000
    H94      H        0.49140    0.57510    0.19600    1.000
    C129     C        0.50100    0.56280    0.94600    1.000
    C130     C        0.52800    0.55510    0.83800    1.000
    H95      H        0.52270    0.55030    0.71930    1.000
    C131     C        0.56240    0.55450    0.90400    1.000
    H96      H        0.58040    0.54940    0.82950    1.000
    C132     C        0.46320    0.56310    0.88600    1.000
    O37      O        0.71417    0.56472    0.26720    1.000
    O38      O        0.86160    0.56743    0.81260    1.000
    O39      O        0.82280    0.56945    0.58330    1.000
    O40      O        0.64450    0.53929    0.60500    1.000
    O41      O        0.61730    0.46529    0.03290    1.000
    O42      O        0.62610    0.45312    0.76450    1.000
    O43      O        0.66060    0.59172    0.47780    1.000
    O44      O        0.63340    0.64660    0.20600    1.000
    O45      O        0.63370    0.66441    0.95620    1.000
    O46      O        0.60620    0.56083    0.14740    1.000
    O47      O        0.44030    0.56752    0.02110    1.000
    O48      O        0.45540    0.56137    0.70450    1.000
    Cd8      Cd       0.90744    0.56273    0.03402    1.000
    Cd9      Cd       0.61856    0.93049    0.49306    1.000
    C133     C        0.84540    0.93807    0.37500    1.000
    C134     C        0.82190    0.93634    0.19760    1.000
    H97      H        0.82480    0.94700    0.11620    1.000
    H98      H        0.82800    0.92530    0.12680    1.000
    C135     C        0.75970    0.93367    0.13750    1.000
    C136     C        0.76480    0.93100    0.94500    1.000
    H99      H        0.78790    0.93020    0.89670    1.000
    C137     C        0.73560    0.92950    0.82600    1.000
    H100     H        0.73910    0.92770    0.69700    1.000
    C138     C        0.70130    0.93057    0.89680    1.000
    C139     C        0.69610    0.93332    0.08970    1.000
    H101     H        0.67300    0.93410    0.13830    1.000
    C140     C        0.72550    0.93490    0.20970    1.000
    H102     H        0.72200    0.93680    0.33850    1.000
    C141     C        0.66890    0.93202    0.76380    1.000
    C142     C        0.83750    0.95900    0.43900    1.000
    H103     H        0.84630    0.96760    0.34540    1.000
    H104     H        0.81200    0.96090    0.45670    1.000
    C143     C        0.85960    0.97940    0.65400    1.000
    C144     C        0.85420    0.99440    0.53500    1.000
    H105     H        0.84720    0.99250    0.41010    1.000
    C145     C        0.85930    0.01220    0.60200    1.000
    H106     H        0.85570    0.02220    0.52250    1.000
    C146     C        0.86980    0.01496    0.78700    1.000
    C147     C        0.87520    0.99990    0.90700    1.000
    H107     H        0.88220    0.00180    0.03150    1.000
    C148     C        0.87010    0.98220    0.84000    1.000
    H108     H        0.87370    0.97220    0.91950    1.000
    C149     C        0.87470    0.03299    0.86900    1.000
    C150     C        0.83700    0.92648    0.55500    1.000
    H109     H        0.85470    0.92850    0.65380    1.000
    H110     H        0.81330    0.92910    0.60410    1.000
    C151     C        0.84480    0.89570    0.64400    1.000
    C152     C        0.83870    0.89840    0.83400    1.000
    H111     H        0.82970    0.90970    0.87560    1.000
    C153     C        0.84570    0.88470    0.96300    1.000
    H112     H        0.84140    0.88670    0.09060    1.000
    C154     C        0.85910    0.86790    0.90200    1.000
    C155     C        0.86500    0.86520    0.71100    1.000
    H113     H        0.87370    0.85400    0.66870    1.000
    C156     C        0.85830    0.87900    0.58300    1.000
    H114     H        0.86270    0.87700    0.45550    1.000
    C157     C        0.86520    0.85144    0.02600    1.000
    C158     C        0.88600    0.93520    0.32200    1.000
    H115     H        0.90050    0.94280    0.40440    1.000
    H116     H        0.89240    0.92250    0.34550    1.000
    C159     C        0.92930    0.93840    0.08100    1.000
    C160     C        0.95610    0.93070    0.18800    1.000
    H117     H        0.95080    0.92600    0.30710    1.000
    C161     C        0.99070    0.93010    0.12200    1.000
    H118     H        0.00860    0.92490    0.19600    1.000
    C162     C        0.99900    0.93720    0.94600    1.000
    C163     C        0.97200    0.94490    0.83800    1.000
    H119     H        0.97730    0.94970    0.71930    1.000
    C164     C        0.93760    0.94550    0.90400    1.000
    H120     H        0.91960    0.95060    0.82950    1.000
    C165     C        0.03680    0.93690    0.88600    1.000
    O49      O        0.78583    0.93528    0.26720    1.000
    O50      O        0.63840    0.93257    0.81260    1.000
    O51      O        0.67720    0.93055    0.58330    1.000
    O52      O        0.85550    0.96071    0.60500    1.000
    O53      O        0.88270    0.03471    0.03290    1.000
    O54      O        0.87390    0.04688    0.76450    1.000
    O55      O        0.83940    0.90828    0.47780    1.000
    O56      O        0.86660    0.85340    0.20600    1.000
    O57      O        0.86630    0.83559    0.95620    1.000
    O58      O        0.89380    0.93917    0.14740    1.000
    O59      O        0.05970    0.93248    0.02110    1.000
    O60      O        0.04460    0.93863    0.70450    1.000
    Cd10     Cd       0.59256    0.93727    0.03402    1.000
    Cd11     Cd       0.61856    0.43049    0.99306    1.000
    C166     C        0.84540    0.43807    0.87500    1.000
    C167     C        0.82190    0.43634    0.69760    1.000
    H121     H        0.82480    0.44700    0.61620    1.000
    H122     H        0.82800    0.42530    0.62680    1.000
    C168     C        0.75970    0.43367    0.63750    1.000
    C169     C        0.76480    0.43100    0.44500    1.000
    H123     H        0.78790    0.43020    0.39670    1.000
    C170     C        0.73560    0.42950    0.32600    1.000
    H124     H        0.73910    0.42770    0.19700    1.000
    C171     C        0.70130    0.43057    0.39680    1.000
    C172     C        0.69610    0.43332    0.58970    1.000
    H125     H        0.67300    0.43410    0.63830    1.000
    C173     C        0.72550    0.43490    0.70970    1.000
    H126     H        0.72200    0.43680    0.83850    1.000
    C174     C        0.66890    0.43202    0.26380    1.000
    C175     C        0.83750    0.45900    0.93900    1.000
    H127     H        0.84630    0.46760    0.84540    1.000
    H128     H        0.81200    0.46090    0.95670    1.000
    C176     C        0.85960    0.47940    0.15400    1.000
    C177     C        0.85420    0.49440    0.03500    1.000
    H129     H        0.84720    0.49250    0.91010    1.000
    C178     C        0.85930    0.51220    0.10200    1.000
    H130     H        0.85570    0.52220    0.02250    1.000
    C179     C        0.86980    0.51496    0.28700    1.000
    C180     C        0.87520    0.49990    0.40700    1.000
    H131     H        0.88220    0.50180    0.53150    1.000
    C181     C        0.87010    0.48220    0.34000    1.000
    H132     H        0.87370    0.47220    0.41950    1.000
    C182     C        0.87470    0.53299    0.36900    1.000
    C183     C        0.83700    0.42648    0.05500    1.000
    H133     H        0.85470    0.42850    0.15380    1.000
    H134     H        0.81330    0.42910    0.10410    1.000
    C184     C        0.84480    0.39570    0.14400    1.000
    C185     C        0.83870    0.39840    0.33400    1.000
    H135     H        0.82970    0.40970    0.37560    1.000
    C186     C        0.84570    0.38470    0.46300    1.000
    H136     H        0.84140    0.38670    0.59060    1.000
    C187     C        0.85910    0.36790    0.40200    1.000
    C188     C        0.86500    0.36520    0.21100    1.000
    H137     H        0.87370    0.35400    0.16870    1.000
    C189     C        0.85830    0.37900    0.08300    1.000
    H138     H        0.86270    0.37700    0.95550    1.000
    C190     C        0.86520    0.35144    0.52600    1.000
    C191     C        0.88600    0.43520    0.82200    1.000
    H139     H        0.90050    0.44280    0.90440    1.000
    H140     H        0.89240    0.42250    0.84550    1.000
    C192     C        0.92930    0.43840    0.58100    1.000
    C193     C        0.95610    0.43070    0.68800    1.000
    H141     H        0.95080    0.42600    0.80710    1.000
    C194     C        0.99070    0.43010    0.62200    1.000
    H142     H        0.00860    0.42490    0.69600    1.000
    C195     C        0.99900    0.43720    0.44600    1.000
    C196     C        0.97200    0.44490    0.33800    1.000
    H143     H        0.97730    0.44970    0.21930    1.000
    C197     C        0.93760    0.44550    0.40400    1.000
    H144     H        0.91960    0.45060    0.32950    1.000
    C198     C        0.03680    0.43690    0.38600    1.000
    O61      O        0.78583    0.43528    0.76720    1.000
    O62      O        0.63840    0.43257    0.31260    1.000
    O63      O        0.67720    0.43055    0.08330    1.000
    O64      O        0.85550    0.46071    0.10500    1.000
    O65      O        0.88270    0.53471    0.53290    1.000
    O66      O        0.87390    0.54688    0.26450    1.000
    O67      O        0.83940    0.40828    0.97780    1.000
    O68      O        0.86660    0.35340    0.70600    1.000
    O69      O        0.86630    0.33559    0.45620    1.000
    O70      O        0.89380    0.43917    0.64740    1.000
    O71      O        0.05970    0.43248    0.52110    1.000
    O72      O        0.04460    0.43863    0.20450    1.000
    Cd12     Cd       0.59256    0.43727    0.53402    1.000
    Cd13     Cd       0.11856    0.93049    0.99306    1.000
    C199     C        0.34540    0.93807    0.87500    1.000
    C200     C        0.32190    0.93634    0.69760    1.000
    H145     H        0.32480    0.94700    0.61620    1.000
    H146     H        0.32800    0.92530    0.62680    1.000
    C201     C        0.25970    0.93367    0.63750    1.000
    C202     C        0.26480    0.93100    0.44500    1.000
    H147     H        0.28790    0.93020    0.39670    1.000
    C203     C        0.23560    0.92950    0.32600    1.000
    H148     H        0.23910    0.92770    0.19700    1.000
    C204     C        0.20130    0.93057    0.39680    1.000
    C205     C        0.19610    0.93332    0.58970    1.000
    H149     H        0.17300    0.93410    0.63830    1.000
    C206     C        0.22550    0.93490    0.70970    1.000
    H150     H        0.22200    0.93680    0.83850    1.000
    C207     C        0.16890    0.93202    0.26380    1.000
    C208     C        0.33750    0.95900    0.93900    1.000
    H151     H        0.34630    0.96760    0.84540    1.000
    H152     H        0.31200    0.96090    0.95670    1.000
    C209     C        0.35960    0.97940    0.15400    1.000
    C210     C        0.35420    0.99440    0.03500    1.000
    H153     H        0.34720    0.99250    0.91010    1.000
    C211     C        0.35930    0.01220    0.10200    1.000
    H154     H        0.35570    0.02220    0.02250    1.000
    C212     C        0.36980    0.01496    0.28700    1.000
    C213     C        0.37520    0.99990    0.40700    1.000
    H155     H        0.38220    0.00180    0.53150    1.000
    C214     C        0.37010    0.98220    0.34000    1.000
    H156     H        0.37370    0.97220    0.41950    1.000
    C215     C        0.37470    0.03299    0.36900    1.000
    C216     C        0.33700    0.92648    0.05500    1.000
    H157     H        0.35470    0.92850    0.15380    1.000
    H158     H        0.31330    0.92910    0.10410    1.000
    C217     C        0.34480    0.89570    0.14400    1.000
    C218     C        0.33870    0.89840    0.33400    1.000
    H159     H        0.32970    0.90970    0.37560    1.000
    C219     C        0.34570    0.88470    0.46300    1.000
    H160     H        0.34140    0.88670    0.59060    1.000
    C220     C        0.35910    0.86790    0.40200    1.000
    C221     C        0.36500    0.86520    0.21100    1.000
    H161     H        0.37370    0.85400    0.16870    1.000
    C222     C        0.35830    0.87900    0.08300    1.000
    H162     H        0.36270    0.87700    0.95550    1.000
    C223     C        0.36520    0.85144    0.52600    1.000
    C224     C        0.38600    0.93520    0.82200    1.000
    H163     H        0.40050    0.94280    0.90440    1.000
    H164     H        0.39240    0.92250    0.84550    1.000
    C225     C        0.42930    0.93840    0.58100    1.000
    C226     C        0.45610    0.93070    0.68800    1.000
    H165     H        0.45080    0.92600    0.80710    1.000
    C227     C        0.49070    0.93010    0.62200    1.000
    H166     H        0.50860    0.92490    0.69600    1.000
    C228     C        0.49900    0.93720    0.44600    1.000
    C229     C        0.47200    0.94490    0.33800    1.000
    H167     H        0.47730    0.94970    0.21930    1.000
    C230     C        0.43760    0.94550    0.40400    1.000
    H168     H        0.41960    0.95060    0.32950    1.000
    C231     C        0.53680    0.93690    0.38600    1.000
    O73      O        0.28583    0.93528    0.76720    1.000
    O74      O        0.13840    0.93257    0.31260    1.000
    O75      O        0.17720    0.93055    0.08330    1.000
    O76      O        0.35550    0.96071    0.10500    1.000
    O77      O        0.38270    0.03471    0.53290    1.000
    O78      O        0.37390    0.04688    0.26450    1.000
    O79      O        0.33940    0.90828    0.97780    1.000
    O80      O        0.36660    0.85340    0.70600    1.000
    O81      O        0.36630    0.83559    0.45620    1.000
    O82      O        0.39380    0.93917    0.64740    1.000
    O83      O        0.55970    0.93248    0.52110    1.000
    O84      O        0.54460    0.93863    0.20450    1.000
    Cd14     Cd       0.09256    0.93727    0.53402    1.000
    Cd15     Cd       0.11856    0.43049    0.49306    1.000
    C232     C        0.34540    0.43807    0.37500    1.000
    C233     C        0.32190    0.43634    0.19760    1.000
    H169     H        0.32480    0.44700    0.11620    1.000
    H170     H        0.32800    0.42530    0.12680    1.000
    C234     C        0.25970    0.43367    0.13750    1.000
    C235     C        0.26480    0.43100    0.94500    1.000
    H171     H        0.28790    0.43020    0.89670    1.000
    C236     C        0.23560    0.42950    0.82600    1.000
    H172     H        0.23910    0.42770    0.69700    1.000
    C237     C        0.20130    0.43057    0.89680    1.000
    C238     C        0.19610    0.43332    0.08970    1.000
    H173     H        0.17300    0.43410    0.13830    1.000
    C239     C        0.22550    0.43490    0.20970    1.000
    H174     H        0.22200    0.43680    0.33850    1.000
    C240     C        0.16890    0.43202    0.76380    1.000
    C241     C        0.33750    0.45900    0.43900    1.000
    H175     H        0.34630    0.46760    0.34540    1.000
    H176     H        0.31200    0.46090    0.45670    1.000
    C242     C        0.35960    0.47940    0.65400    1.000
    C243     C        0.35420    0.49440    0.53500    1.000
    H177     H        0.34720    0.49250    0.41010    1.000
    C244     C        0.35930    0.51220    0.60200    1.000
    H178     H        0.35570    0.52220    0.52250    1.000
    C245     C        0.36980    0.51496    0.78700    1.000
    C246     C        0.37520    0.49990    0.90700    1.000
    H179     H        0.38220    0.50180    0.03150    1.000
    C247     C        0.37010    0.48220    0.84000    1.000
    H180     H        0.37370    0.47220    0.91950    1.000
    C248     C        0.37470    0.53299    0.86900    1.000
    C249     C        0.33700    0.42648    0.55500    1.000
    H181     H        0.35470    0.42850    0.65380    1.000
    H182     H        0.31330    0.42910    0.60410    1.000
    C250     C        0.34480    0.39570    0.64400    1.000
    C251     C        0.33870    0.39840    0.83400    1.000
    H183     H        0.32970    0.40970    0.87560    1.000
    C252     C        0.34570    0.38470    0.96300    1.000
    H184     H        0.34140    0.38670    0.09060    1.000
    C253     C        0.35910    0.36790    0.90200    1.000
    C254     C        0.36500    0.36520    0.71100    1.000
    H185     H        0.37370    0.35400    0.66870    1.000
    C255     C        0.35830    0.37900    0.58300    1.000
    H186     H        0.36270    0.37700    0.45550    1.000
    C256     C        0.36520    0.35144    0.02600    1.000
    C257     C        0.38600    0.43520    0.32200    1.000
    H187     H        0.40050    0.44280    0.40440    1.000
    H188     H        0.39240    0.42250    0.34550    1.000
    C258     C        0.42930    0.43840    0.08100    1.000
    C259     C        0.45610    0.43070    0.18800    1.000
    H189     H        0.45080    0.42600    0.30710    1.000
    C260     C        0.49070    0.43010    0.12200    1.000
    H190     H        0.50860    0.42490    0.19600    1.000
    C261     C        0.49900    0.43720    0.94600    1.000
    C262     C        0.47200    0.44490    0.83800    1.000
    H191     H        0.47730    0.44970    0.71930    1.000
    C263     C        0.43760    0.44550    0.90400    1.000
    H192     H        0.41960    0.45060    0.82950    1.000
    C264     C        0.53680    0.43690    0.88600    1.000
    O85      O        0.28583    0.43528    0.26720    1.000
    O86      O        0.13840    0.43257    0.81260    1.000
    O87      O        0.17720    0.43055    0.58330    1.000
    O88      O        0.35550    0.46071    0.60500    1.000
    O89      O        0.38270    0.53471    0.03290    1.000
    O90      O        0.37390    0.54688    0.76450    1.000
    O91      O        0.33940    0.40828    0.47780    1.000
    O92      O        0.36660    0.35340    0.20600    1.000
    O93      O        0.36630    0.33559    0.95620    1.000
    O94      O        0.39380    0.43917    0.14740    1.000
    O95      O        0.55970    0.43248    0.02110    1.000
    O96      O        0.54460    0.43863    0.70450    1.000
    Cd16     Cd       0.09256    0.43727    0.03402    1.000
    Cd17     Cd       0.63144    0.18049    0.74306    1.000
    C265     C        0.40460    0.18807    0.62500    1.000
    C266     C        0.42810    0.18634    0.44760    1.000
    H193     H        0.42520    0.19700    0.36620    1.000
    H194     H        0.42200    0.17530    0.37680    1.000
    C267     C        0.49030    0.18367    0.38750    1.000
    C268     C        0.48520    0.18100    0.19500    1.000
    H195     H        0.46210    0.18020    0.14670    1.000
    C269     C        0.51440    0.17950    0.07600    1.000
    H196     H        0.51090    0.17770    0.94700    1.000
    C270     C        0.54870    0.18057    0.14680    1.000
    C271     C        0.55390    0.18332    0.33970    1.000
    H197     H        0.57700    0.18410    0.38830    1.000
    C272     C        0.52450    0.18490    0.45970    1.000
    H198     H        0.52800    0.18680    0.58850    1.000
    C273     C        0.58110    0.18202    0.01380    1.000
    C274     C        0.41250    0.20900    0.68900    1.000
    H199     H        0.40370    0.21760    0.59540    1.000
    H200     H        0.43800    0.21090    0.70670    1.000
    C275     C        0.39040    0.22940    0.90400    1.000
    C276     C        0.39580    0.24440    0.78500    1.000
    H201     H        0.40280    0.24250    0.66010    1.000
    C277     C        0.39070    0.26220    0.85200    1.000
    H202     H        0.39430    0.27220    0.77250    1.000
    C278     C        0.38020    0.26496    0.03700    1.000
    C279     C        0.37480    0.24990    0.15700    1.000
    H203     H        0.36780    0.25180    0.28150    1.000
    C280     C        0.37990    0.23220    0.09000    1.000
    H204     H        0.37630    0.22220    0.16950    1.000
    C281     C        0.37530    0.28299    0.11900    1.000
    C282     C        0.41300    0.17648    0.80500    1.000
    H205     H        0.39530    0.17850    0.90380    1.000
    H206     H        0.43670    0.17910    0.85410    1.000
    C283     C        0.40520    0.14570    0.89400    1.000
    C284     C        0.41130    0.14840    0.08400    1.000
    H207     H        0.42030    0.15970    0.12560    1.000
    C285     C        0.40430    0.13470    0.21300    1.000
    H208     H        0.40860    0.13670    0.34060    1.000
    C286     C        0.39090    0.11790    0.15200    1.000
    C287     C        0.38500    0.11520    0.96100    1.000
    H209     H        0.37630    0.10400    0.91870    1.000
    C288     C        0.39170    0.12900    0.83300    1.000
    H210     H        0.38730    0.12700    0.70550    1.000
    C289     C        0.38480    0.10144    0.27600    1.000
    C290     C        0.36400    0.18520    0.57200    1.000
    H211     H        0.34950    0.19280    0.65440    1.000
    H212     H        0.35760    0.17250    0.59550    1.000
    C291     C        0.32070    0.18840    0.33100    1.000
    C292     C        0.29390    0.18070    0.43800    1.000
    H213     H        0.29920    0.17600    0.55710    1.000
    C293     C        0.25930    0.18010    0.37200    1.000
    H214     H        0.24140    0.17490    0.44600    1.000
    C294     C        0.25100    0.18720    0.19600    1.000
    C295     C        0.27800    0.19490    0.08800    1.000
    H215     H        0.27270    0.19970    0.96930    1.000
    C296     C        0.31240    0.19550    0.15400    1.000
    H216     H        0.33040    0.20060    0.07950    1.000
    C297     C        0.21320    0.18690    0.13600    1.000
    O97      O        0.46417    0.18528    0.51720    1.000
    O98      O        0.61160    0.18257    0.06260    1.000
    O99      O        0.57280    0.18055    0.83330    1.000
    O100     O        0.39450    0.21071    0.85500    1.000
    O101     O        0.36730    0.28471    0.28290    1.000
    O102     O        0.37610    0.29688    0.01450    1.000
    O103     O        0.41060    0.15828    0.72780    1.000
    O104     O        0.38340    0.10340    0.45600    1.000
    O105     O        0.38370    0.08559    0.20620    1.000
    O106     O        0.35620    0.18917    0.39740    1.000
    O107     O        0.19030    0.18248    0.27110    1.000
    O108     O        0.20540    0.18863    0.95450    1.000
    Cd18     Cd       0.65744    0.18727    0.28402    1.000
    Cd19     Cd       0.63144    0.68049    0.24306    1.000
    C298     C        0.40460    0.68807    0.12500    1.000
    C299     C        0.42810    0.68634    0.94760    1.000
    H217     H        0.42520    0.69700    0.86620    1.000
    H218     H        0.42200    0.67530    0.87680    1.000
    C300     C        0.49030    0.68367    0.88750    1.000
    C301     C        0.48520    0.68100    0.69500    1.000
    H219     H        0.46210    0.68020    0.64670    1.000
    C302     C        0.51440    0.67950    0.57600    1.000
    H220     H        0.51090    0.67770    0.44700    1.000
    C303     C        0.54870    0.68057    0.64680    1.000
    C304     C        0.55390    0.68332    0.83970    1.000
    H221     H        0.57700    0.68410    0.88830    1.000
    C305     C        0.52450    0.68490    0.95970    1.000
    H222     H        0.52800    0.68680    0.08850    1.000
    C306     C        0.58110    0.68202    0.51380    1.000
    C307     C        0.41250    0.70900    0.18900    1.000
    H223     H        0.40370    0.71760    0.09540    1.000
    H224     H        0.43800    0.71090    0.20670    1.000
    C308     C        0.39040    0.72940    0.40400    1.000
    C309     C        0.39580    0.74440    0.28500    1.000
    H225     H        0.40280    0.74250    0.16010    1.000
    C310     C        0.39070    0.76220    0.35200    1.000
    H226     H        0.39430    0.77220    0.27250    1.000
    C311     C        0.38020    0.76496    0.53700    1.000
    C312     C        0.37480    0.74990    0.65700    1.000
    H227     H        0.36780    0.75180    0.78150    1.000
    C313     C        0.37990    0.73220    0.59000    1.000
    H228     H        0.37630    0.72220    0.66950    1.000
    C314     C        0.37530    0.78299    0.61900    1.000
    C315     C        0.41300    0.67648    0.30500    1.000
    H229     H        0.39530    0.67850    0.40380    1.000
    H230     H        0.43670    0.67910    0.35410    1.000
    C316     C        0.40520    0.64570    0.39400    1.000
    C317     C        0.41130    0.64840    0.58400    1.000
    H231     H        0.42030    0.65970    0.62560    1.000
    C318     C        0.40430    0.63470    0.71300    1.000
    H232     H        0.40860    0.63670    0.84060    1.000
    C319     C        0.39090    0.61790    0.65200    1.000
    C320     C        0.38500    0.61520    0.46100    1.000
    H233     H        0.37630    0.60400    0.41870    1.000
    C321     C        0.39170    0.62900    0.33300    1.000
    H234     H        0.38730    0.62700    0.20550    1.000
    C322     C        0.38480    0.60144    0.77600    1.000
    C323     C        0.36400    0.68520    0.07200    1.000
    H235     H        0.34950    0.69280    0.15440    1.000
    H236     H        0.35760    0.67250    0.09550    1.000
    C324     C        0.32070    0.68840    0.83100    1.000
    C325     C        0.29390    0.68070    0.93800    1.000
    H237     H        0.29920    0.67600    0.05710    1.000
    C326     C        0.25930    0.68010    0.87200    1.000
    H238     H        0.24140    0.67490    0.94600    1.000
    C327     C        0.25100    0.68720    0.69600    1.000
    C328     C        0.27800    0.69490    0.58800    1.000
    H239     H        0.27270    0.69970    0.46930    1.000
    C329     C        0.31240    0.69550    0.65400    1.000
    H240     H        0.33040    0.70060    0.57950    1.000
    C330     C        0.21320    0.68690    0.63600    1.000
    O109     O        0.46417    0.68528    0.01720    1.000
    O110     O        0.61160    0.68257    0.56260    1.000
    O111     O        0.57280    0.68055    0.33330    1.000
    O112     O        0.39450    0.71071    0.35500    1.000
    O113     O        0.36730    0.78471    0.78290    1.000
    O114     O        0.37610    0.79688    0.51450    1.000
    O115     O        0.41060    0.65828    0.22780    1.000
    O116     O        0.38340    0.60340    0.95600    1.000
    O117     O        0.38370    0.58559    0.70620    1.000
    O118     O        0.35620    0.68917    0.89740    1.000
    O119     O        0.19030    0.68248    0.77110    1.000
    O120     O        0.20540    0.68863    0.45450    1.000
    Cd20     Cd       0.65744    0.68727    0.78402    1.000
    Cd21     Cd       0.13144    0.18049    0.24306    1.000
    C331     C        0.90460    0.18807    0.12500    1.000
    C332     C        0.92810    0.18634    0.94760    1.000
    H241     H        0.92520    0.19700    0.86620    1.000
    H242     H        0.92200    0.17530    0.87680    1.000
    C333     C        0.99030    0.18367    0.88750    1.000
    C334     C        0.98520    0.18100    0.69500    1.000
    H243     H        0.96210    0.18020    0.64670    1.000
    C335     C        0.01440    0.17950    0.57600    1.000
    H244     H        0.01090    0.17770    0.44700    1.000
    C336     C        0.04870    0.18057    0.64680    1.000
    C337     C        0.05390    0.18332    0.83970    1.000
    H245     H        0.07700    0.18410    0.88830    1.000
    C338     C        0.02450    0.18490    0.95970    1.000
    H246     H        0.02800    0.18680    0.08850    1.000
    C339     C        0.08110    0.18202    0.51380    1.000
    C340     C        0.91250    0.20900    0.18900    1.000
    H247     H        0.90370    0.21760    0.09540    1.000
    H248     H        0.93800    0.21090    0.20670    1.000
    C341     C        0.89040    0.22940    0.40400    1.000
    C342     C        0.89580    0.24440    0.28500    1.000
    H249     H        0.90280    0.24250    0.16010    1.000
    C343     C        0.89070    0.26220    0.35200    1.000
    H250     H        0.89430    0.27220    0.27250    1.000
    C344     C        0.88020    0.26496    0.53700    1.000
    C345     C        0.87480    0.24990    0.65700    1.000
    H251     H        0.86780    0.25180    0.78150    1.000
    C346     C        0.87990    0.23220    0.59000    1.000
    H252     H        0.87630    0.22220    0.66950    1.000
    C347     C        0.87530    0.28299    0.61900    1.000
    C348     C        0.91300    0.17648    0.30500    1.000
    H253     H        0.89530    0.17850    0.40380    1.000
    H254     H        0.93670    0.17910    0.35410    1.000
    C349     C        0.90520    0.14570    0.39400    1.000
    C350     C        0.91130    0.14840    0.58400    1.000
    H255     H        0.92030    0.15970    0.62560    1.000
    C351     C        0.90430    0.13470    0.71300    1.000
    H256     H        0.90860    0.13670    0.84060    1.000
    C352     C        0.89090    0.11790    0.65200    1.000
    C353     C        0.88500    0.11520    0.46100    1.000
    H257     H        0.87630    0.10400    0.41870    1.000
    C354     C        0.89170    0.12900    0.33300    1.000
    H258     H        0.88730    0.12700    0.20550    1.000
    C355     C        0.88480    0.10144    0.77600    1.000
    C356     C        0.86400    0.18520    0.07200    1.000
    H259     H        0.84950    0.19280    0.15440    1.000
    H260     H        0.85760    0.17250    0.09550    1.000
    C357     C        0.82070    0.18840    0.83100    1.000
    C358     C        0.79390    0.18070    0.93800    1.000
    H261     H        0.79920    0.17600    0.05710    1.000
    C359     C        0.75930    0.18010    0.87200    1.000
    H262     H        0.74140    0.17490    0.94600    1.000
    C360     C        0.75100    0.18720    0.69600    1.000
    C361     C        0.77800    0.19490    0.58800    1.000
    H263     H        0.77270    0.19970    0.46930    1.000
    C362     C        0.81240    0.19550    0.65400    1.000
    H264     H        0.83040    0.20060    0.57950    1.000
    C363     C        0.71320    0.18690    0.63600    1.000
    O121     O        0.96417    0.18528    0.01720    1.000
    O122     O        0.11160    0.18257    0.56260    1.000
    O123     O        0.07280    0.18055    0.33330    1.000
    O124     O        0.89450    0.21071    0.35500    1.000
    O125     O        0.86730    0.28471    0.78290    1.000
    O126     O        0.87610    0.29688    0.51450    1.000
    O127     O        0.91060    0.15828    0.22780    1.000
    O128     O        0.88340    0.10340    0.95600    1.000
    O129     O        0.88370    0.08559    0.70620    1.000
    O130     O        0.85620    0.18917    0.89740    1.000
    O131     O        0.69030    0.18248    0.77110    1.000
    O132     O        0.70540    0.18863    0.45450    1.000
    Cd22     Cd       0.15744    0.18727    0.78402    1.000
    Cd23     Cd       0.13144    0.68049    0.74306    1.000
    C364     C        0.90460    0.68807    0.62500    1.000
    C365     C        0.92810    0.68634    0.44760    1.000
    H265     H        0.92520    0.69700    0.36620    1.000
    H266     H        0.92200    0.67530    0.37680    1.000
    C366     C        0.99030    0.68367    0.38750    1.000
    C367     C        0.98520    0.68100    0.19500    1.000
    H267     H        0.96210    0.68020    0.14670    1.000
    C368     C        0.01440    0.67950    0.07600    1.000
    H268     H        0.01090    0.67770    0.94700    1.000
    C369     C        0.04870    0.68057    0.14680    1.000
    C370     C        0.05390    0.68332    0.33970    1.000
    H269     H        0.07700    0.68410    0.38830    1.000
    C371     C        0.02450    0.68490    0.45970    1.000
    H270     H        0.02800    0.68680    0.58850    1.000
    C372     C        0.08110    0.68202    0.01380    1.000
    C373     C        0.91250    0.70900    0.68900    1.000
    H271     H        0.90370    0.71760    0.59540    1.000
    H272     H        0.93800    0.71090    0.70670    1.000
    C374     C        0.89040    0.72940    0.90400    1.000
    C375     C        0.89580    0.74440    0.78500    1.000
    H273     H        0.90280    0.74250    0.66010    1.000
    C376     C        0.89070    0.76220    0.85200    1.000
    H274     H        0.89430    0.77220    0.77250    1.000
    C377     C        0.88020    0.76496    0.03700    1.000
    C378     C        0.87480    0.74990    0.15700    1.000
    H275     H        0.86780    0.75180    0.28150    1.000
    C379     C        0.87990    0.73220    0.09000    1.000
    H276     H        0.87630    0.72220    0.16950    1.000
    C380     C        0.87530    0.78299    0.11900    1.000
    C381     C        0.91300    0.67648    0.80500    1.000
    H277     H        0.89530    0.67850    0.90380    1.000
    H278     H        0.93670    0.67910    0.85410    1.000
    C382     C        0.90520    0.64570    0.89400    1.000
    C383     C        0.91130    0.64840    0.08400    1.000
    H279     H        0.92030    0.65970    0.12560    1.000
    C384     C        0.90430    0.63470    0.21300    1.000
    H280     H        0.90860    0.63670    0.34060    1.000
    C385     C        0.89090    0.61790    0.15200    1.000
    C386     C        0.88500    0.61520    0.96100    1.000
    H281     H        0.87630    0.60400    0.91870    1.000
    C387     C        0.89170    0.62900    0.83300    1.000
    H282     H        0.88730    0.62700    0.70550    1.000
    C388     C        0.88480    0.60144    0.27600    1.000
    C389     C        0.86400    0.68520    0.57200    1.000
    H283     H        0.84950    0.69280    0.65440    1.000
    H284     H        0.85760    0.67250    0.59550    1.000
    C390     C        0.82070    0.68840    0.33100    1.000
    C391     C        0.79390    0.68070    0.43800    1.000
    H285     H        0.79920    0.67600    0.55710    1.000
    C392     C        0.75930    0.68010    0.37200    1.000
    H286     H        0.74140    0.67490    0.44600    1.000
    C393     C        0.75100    0.68720    0.19600    1.000
    C394     C        0.77800    0.69490    0.08800    1.000
    H287     H        0.77270    0.69970    0.96930    1.000
    C395     C        0.81240    0.69550    0.15400    1.000
    H288     H        0.83040    0.70060    0.07950    1.000
    C396     C        0.71320    0.68690    0.13600    1.000
    O133     O        0.96417    0.68528    0.51720    1.000
    O134     O        0.11160    0.68257    0.06260    1.000
    O135     O        0.07280    0.68055    0.83330    1.000
    O136     O        0.89450    0.71071    0.85500    1.000
    O137     O        0.86730    0.78471    0.28290    1.000
    O138     O        0.87610    0.79688    0.01450    1.000
    O139     O        0.91060    0.65828    0.72780    1.000
    O140     O        0.88340    0.60340    0.45600    1.000
    O141     O        0.88370    0.58559    0.20620    1.000
    O142     O        0.85620    0.68917    0.39740    1.000
    O143     O        0.69030    0.68248    0.27110    1.000
    O144     O        0.70540    0.68863    0.95450    1.000
    Cd24     Cd       0.15744    0.68727    0.28402    1.000
    Cd25     Cd       0.86856    0.31951    0.74306    1.000
    C397     C        0.09540    0.31193    0.62500    1.000
    C398     C        0.07190    0.31366    0.44760    1.000
    H289     H        0.07480    0.30300    0.36620    1.000
    H290     H        0.07800    0.32470    0.37680    1.000
    C399     C        0.00970    0.31633    0.38750    1.000
    C400     C        0.01480    0.31900    0.19500    1.000
    H291     H        0.03790    0.31980    0.14670    1.000
    C401     C        0.98560    0.32050    0.07600    1.000
    H292     H        0.98910    0.32230    0.94700    1.000
    C402     C        0.95130    0.31943    0.14680    1.000
    C403     C        0.94610    0.31668    0.33970    1.000
    H293     H        0.92300    0.31590    0.38830    1.000
    C404     C        0.97550    0.31510    0.45970    1.000
    H294     H        0.97200    0.31320    0.58850    1.000
    C405     C        0.91890    0.31798    0.01380    1.000
    C406     C        0.08750    0.29100    0.68900    1.000
    H295     H        0.09630    0.28240    0.59540    1.000
    H296     H        0.06200    0.28910    0.70670    1.000
    C407     C        0.10960    0.27060    0.90400    1.000
    C408     C        0.10420    0.25560    0.78500    1.000
    H297     H        0.09720    0.25750    0.66010    1.000
    C409     C        0.10930    0.23780    0.85200    1.000
    H298     H        0.10570    0.22780    0.77250    1.000
    C410     C        0.11980    0.23504    0.03700    1.000
    C411     C        0.12520    0.25010    0.15700    1.000
    H299     H        0.13220    0.24820    0.28150    1.000
    C412     C        0.12010    0.26780    0.09000    1.000
    H300     H        0.12370    0.27780    0.16950    1.000
    C413     C        0.12470    0.21701    0.11900    1.000
    C414     C        0.08700    0.32352    0.80500    1.000
    H301     H        0.10470    0.32150    0.90380    1.000
    H302     H        0.06330    0.32090    0.85410    1.000
    C415     C        0.09480    0.35430    0.89400    1.000
    C416     C        0.08870    0.35160    0.08400    1.000
    H303     H        0.07970    0.34030    0.12560    1.000
    C417     C        0.09570    0.36530    0.21300    1.000
    H304     H        0.09140    0.36330    0.34060    1.000
    C418     C        0.10910    0.38210    0.15200    1.000
    C419     C        0.11500    0.38480    0.96100    1.000
    H305     H        0.12370    0.39600    0.91870    1.000
    C420     C        0.10830    0.37100    0.83300    1.000
    H306     H        0.11270    0.37300    0.70550    1.000
    C421     C        0.11520    0.39856    0.27600    1.000
    C422     C        0.13600    0.31480    0.57200    1.000
    H307     H        0.15050    0.30720    0.65440    1.000
    H308     H        0.14240    0.32750    0.59550    1.000
    C423     C        0.17930    0.31160    0.33100    1.000
    C424     C        0.20610    0.31930    0.43800    1.000
    H309     H        0.20080    0.32400    0.55710    1.000
    C425     C        0.24070    0.31990    0.37200    1.000
    H310     H        0.25860    0.32510    0.44600    1.000
    C426     C        0.24900    0.31280    0.19600    1.000
    C427     C        0.22200    0.30510    0.08800    1.000
    H311     H        0.22730    0.30030    0.96930    1.000
    C428     C        0.18760    0.30450    0.15400    1.000
    H312     H        0.16960    0.29940    0.07950    1.000
    C429     C        0.28680    0.31310    0.13600    1.000
    O145     O        0.03583    0.31472    0.51720    1.000
    O146     O        0.88840    0.31743    0.06260    1.000
    O147     O        0.92720    0.31945    0.83330    1.000
    O148     O        0.10550    0.28929    0.85500    1.000
    O149     O        0.13270    0.21529    0.28290    1.000
    O150     O        0.12390    0.20312    0.01450    1.000
    O151     O        0.08940    0.34172    0.72780    1.000
    O152     O        0.11660    0.39660    0.45600    1.000
    O153     O        0.11630    0.41441    0.20620    1.000
    O154     O        0.14380    0.31083    0.39740    1.000
    O155     O        0.30970    0.31752    0.27110    1.000
    O156     O        0.29460    0.31137    0.95450    1.000
    Cd26     Cd       0.84256    0.31273    0.28402    1.000
    Cd27     Cd       0.86856    0.81951    0.24306    1.000
    C430     C        0.09540    0.81193    0.12500    1.000
    C431     C        0.07190    0.81366    0.94760    1.000
    H313     H        0.07480    0.80300    0.86620    1.000
    H314     H        0.07800    0.82470    0.87680    1.000
    C432     C        0.00970    0.81633    0.88750    1.000
    C433     C        0.01480    0.81900    0.69500    1.000
    H315     H        0.03790    0.81980    0.64670    1.000
    C434     C        0.98560    0.82050    0.57600    1.000
    H316     H        0.98910    0.82230    0.44700    1.000
    C435     C        0.95130    0.81943    0.64680    1.000
    C436     C        0.94610    0.81668    0.83970    1.000
    H317     H        0.92300    0.81590    0.88830    1.000
    C437     C        0.97550    0.81510    0.95970    1.000
    H318     H        0.97200    0.81320    0.08850    1.000
    C438     C        0.91890    0.81798    0.51380    1.000
    C439     C        0.08750    0.79100    0.18900    1.000
    H319     H        0.09630    0.78240    0.09540    1.000
    H320     H        0.06200    0.78910    0.20670    1.000
    C440     C        0.10960    0.77060    0.40400    1.000
    C441     C        0.10420    0.75560    0.28500    1.000
    H321     H        0.09720    0.75750    0.16010    1.000
    C442     C        0.10930    0.73780    0.35200    1.000
    H322     H        0.10570    0.72780    0.27250    1.000
    C443     C        0.11980    0.73504    0.53700    1.000
    C444     C        0.12520    0.75010    0.65700    1.000
    H323     H        0.13220    0.74820    0.78150    1.000
    C445     C        0.12010    0.76780    0.59000    1.000
    H324     H        0.12370    0.77780    0.66950    1.000
    C446     C        0.12470    0.71701    0.61900    1.000
    C447     C        0.08700    0.82352    0.30500    1.000
    H325     H        0.10470    0.82150    0.40380    1.000
    H326     H        0.06330    0.82090    0.35410    1.000
    C448     C        0.09480    0.85430    0.39400    1.000
    C449     C        0.08870    0.85160    0.58400    1.000
    H327     H        0.07970    0.84030    0.62560    1.000
    C450     C        0.09570    0.86530    0.71300    1.000
    H328     H        0.09140    0.86330    0.84060    1.000
    C451     C        0.10910    0.88210    0.65200    1.000
    C452     C        0.11500    0.88480    0.46100    1.000
    H329     H        0.12370    0.89600    0.41870    1.000
    C453     C        0.10830    0.87100    0.33300    1.000
    H330     H        0.11270    0.87300    0.20550    1.000
    C454     C        0.11520    0.89856    0.77600    1.000
    C455     C        0.13600    0.81480    0.07200    1.000
    H331     H        0.15050    0.80720    0.15440    1.000
    H332     H        0.14240    0.82750    0.09550    1.000
    C456     C        0.17930    0.81160    0.83100    1.000
    C457     C        0.20610    0.81930    0.93800    1.000
    H333     H        0.20080    0.82400    0.05710    1.000
    C458     C        0.24070    0.81990    0.87200    1.000
    H334     H        0.25860    0.82510    0.94600    1.000
    C459     C        0.24900    0.81280    0.69600    1.000
    C460     C        0.22200    0.80510    0.58800    1.000
    H335     H        0.22730    0.80030    0.46930    1.000
    C461     C        0.18760    0.80450    0.65400    1.000
    H336     H        0.16960    0.79940    0.57950    1.000
    C462     C        0.28680    0.81310    0.63600    1.000
    O157     O        0.03583    0.81472    0.01720    1.000
    O158     O        0.88840    0.81743    0.56260    1.000
    O159     O        0.92720    0.81945    0.33330    1.000
    O160     O        0.10550    0.78929    0.35500    1.000
    O161     O        0.13270    0.71529    0.78290    1.000
    O162     O        0.12390    0.70312    0.51450    1.000
    O163     O        0.08940    0.84172    0.22780    1.000
    O164     O        0.11660    0.89660    0.95600    1.000
    O165     O        0.11630    0.91441    0.70620    1.000
    O166     O        0.14380    0.81083    0.89740    1.000
    O167     O        0.30970    0.81752    0.77110    1.000
    O168     O        0.29460    0.81137    0.45450    1.000
    Cd28     Cd       0.84256    0.81273    0.78402    1.000
    Cd29     Cd       0.36856    0.31951    0.24306    1.000
    C463     C        0.59540    0.31193    0.12500    1.000
    C464     C        0.57190    0.31366    0.94760    1.000
    H337     H        0.57480    0.30300    0.86620    1.000
    H338     H        0.57800    0.32470    0.87680    1.000
    C465     C        0.50970    0.31633    0.88750    1.000
    C466     C        0.51480    0.31900    0.69500    1.000
    H339     H        0.53790    0.31980    0.64670    1.000
    C467     C        0.48560    0.32050    0.57600    1.000
    H340     H        0.48910    0.32230    0.44700    1.000
    C468     C        0.45130    0.31943    0.64680    1.000
    C469     C        0.44610    0.31668    0.83970    1.000
    H341     H        0.42300    0.31590    0.88830    1.000
    C470     C        0.47550    0.31510    0.95970    1.000
    H342     H        0.47200    0.31320    0.08850    1.000
    C471     C        0.41890    0.31798    0.51380    1.000
    C472     C        0.58750    0.29100    0.18900    1.000
    H343     H        0.59630    0.28240    0.09540    1.000
    H344     H        0.56200    0.28910    0.20670    1.000
    C473     C        0.60960    0.27060    0.40400    1.000
    C474     C        0.60420    0.25560    0.28500    1.000
    H345     H        0.59720    0.25750    0.16010    1.000
    C475     C        0.60930    0.23780    0.35200    1.000
    H346     H        0.60570    0.22780    0.27250    1.000
    C476     C        0.61980    0.23504    0.53700    1.000
    C477     C        0.62520    0.25010    0.65700    1.000
    H347     H        0.63220    0.24820    0.78150    1.000
    C478     C        0.62010    0.26780    0.59000    1.000
    H348     H        0.62370    0.27780    0.66950    1.000
    C479     C        0.62470    0.21701    0.61900    1.000
    C480     C        0.58700    0.32352    0.30500    1.000
    H349     H        0.60470    0.32150    0.40380    1.000
    H350     H        0.56330    0.32090    0.35410    1.000
    C481     C        0.59480    0.35430    0.39400    1.000
    C482     C        0.58870    0.35160    0.58400    1.000
    H351     H        0.57970    0.34030    0.62560    1.000
    C483     C        0.59570    0.36530    0.71300    1.000
    H352     H        0.59140    0.36330    0.84060    1.000
    C484     C        0.60910    0.38210    0.65200    1.000
    C485     C        0.61500    0.38480    0.46100    1.000
    H353     H        0.62370    0.39600    0.41870    1.000
    C486     C        0.60830    0.37100    0.33300    1.000
    H354     H        0.61270    0.37300    0.20550    1.000
    C487     C        0.61520    0.39856    0.77600    1.000
    C488     C        0.63600    0.31480    0.07200    1.000
    H355     H        0.65050    0.30720    0.15440    1.000
    H356     H        0.64240    0.32750    0.09550    1.000
    C489     C        0.67930    0.31160    0.83100    1.000
    C490     C        0.70610    0.31930    0.93800    1.000
    H357     H        0.70080    0.32400    0.05710    1.000
    C491     C        0.74070    0.31990    0.87200    1.000
    H358     H        0.75860    0.32510    0.94600    1.000
    C492     C        0.74900    0.31280    0.69600    1.000
    C493     C        0.72200    0.30510    0.58800    1.000
    H359     H        0.72730    0.30030    0.46930    1.000
    C494     C        0.68760    0.30450    0.65400    1.000
    H360     H        0.66960    0.29940    0.57950    1.000
    C495     C        0.78680    0.31310    0.63600    1.000
    O169     O        0.53583    0.31472    0.01720    1.000
    O170     O        0.38840    0.31743    0.56260    1.000
    O171     O        0.42720    0.31945    0.33330    1.000
    O172     O        0.60550    0.28929    0.35500    1.000
    O173     O        0.63270    0.21529    0.78290    1.000
    O174     O        0.62390    0.20312    0.51450    1.000
    O175     O        0.58940    0.34172    0.22780    1.000
    O176     O        0.61660    0.39660    0.95600    1.000
    O177     O        0.61630    0.41441    0.70620    1.000
    O178     O        0.64380    0.31083    0.89740    1.000
    O179     O        0.80970    0.31752    0.77110    1.000
    O180     O        0.79460    0.31137    0.45450    1.000
    Cd30     Cd       0.34256    0.31273    0.78402    1.000
    Cd31     Cd       0.36856    0.81951    0.74306    1.000
    C496     C        0.59540    0.81193    0.62500    1.000
    C497     C        0.57190    0.81366    0.44760    1.000
    H361     H        0.57480    0.80300    0.36620    1.000
    H362     H        0.57800    0.82470    0.37680    1.000
    C498     C        0.50970    0.81633    0.38750    1.000
    C499     C        0.51480    0.81900    0.19500    1.000
    H363     H        0.53790    0.81980    0.14670    1.000
    C500     C        0.48560    0.82050    0.07600    1.000
    H364     H        0.48910    0.82230    0.94700    1.000
    C501     C        0.45130    0.81943    0.14680    1.000
    C502     C        0.44610    0.81668    0.33970    1.000
    H365     H        0.42300    0.81590    0.38830    1.000
    C503     C        0.47550    0.81510    0.45970    1.000
    H366     H        0.47200    0.81320    0.58850    1.000
    C504     C        0.41890    0.81798    0.01380    1.000
    C505     C        0.58750    0.79100    0.68900    1.000
    H367     H        0.59630    0.78240    0.59540    1.000
    H368     H        0.56200    0.78910    0.70670    1.000
    C506     C        0.60960    0.77060    0.90400    1.000
    C507     C        0.60420    0.75560    0.78500    1.000
    H369     H        0.59720    0.75750    0.66010    1.000
    C508     C        0.60930    0.73780    0.85200    1.000
    H370     H        0.60570    0.72780    0.77250    1.000
    C509     C        0.61980    0.73504    0.03700    1.000
    C510     C        0.62520    0.75010    0.15700    1.000
    H371     H        0.63220    0.74820    0.28150    1.000
    C511     C        0.62010    0.76780    0.09000    1.000
    H372     H        0.62370    0.77780    0.16950    1.000
    C512     C        0.62470    0.71701    0.11900    1.000
    C513     C        0.58700    0.82352    0.80500    1.000
    H373     H        0.60470    0.82150    0.90380    1.000
    H374     H        0.56330    0.82090    0.85410    1.000
    C514     C        0.59480    0.85430    0.89400    1.000
    C515     C        0.58870    0.85160    0.08400    1.000
    H375     H        0.57970    0.84030    0.12560    1.000
    C516     C        0.59570    0.86530    0.21300    1.000
    H376     H        0.59140    0.86330    0.34060    1.000
    C517     C        0.60910    0.88210    0.15200    1.000
    C518     C        0.61500    0.88480    0.96100    1.000
    H377     H        0.62370    0.89600    0.91870    1.000
    C519     C        0.60830    0.87100    0.83300    1.000
    H378     H        0.61270    0.87300    0.70550    1.000
    C520     C        0.61520    0.89856    0.27600    1.000
    C521     C        0.63600    0.81480    0.57200    1.000
    H379     H        0.65050    0.80720    0.65440    1.000
    H380     H        0.64240    0.82750    0.59550    1.000
    C522     C        0.67930    0.81160    0.33100    1.000
    C523     C        0.70610    0.81930    0.43800    1.000
    H381     H        0.70080    0.82400    0.55710    1.000
    C524     C        0.74070    0.81990    0.37200    1.000
    H382     H        0.75860    0.82510    0.44600    1.000
    C525     C        0.74900    0.81280    0.19600    1.000
    C526     C        0.72200    0.80510    0.08800    1.000
    H383     H        0.72730    0.80030    0.96930    1.000
    C527     C        0.68760    0.80450    0.15400    1.000
    H384     H        0.66960    0.79940    0.07950    1.000
    C528     C        0.78680    0.81310    0.13600    1.000
    O181     O        0.53583    0.81472    0.51720    1.000
    O182     O        0.38840    0.81743    0.06260    1.000
    O183     O        0.42720    0.81945    0.83330    1.000
    O184     O        0.60550    0.78929    0.85500    1.000
    O185     O        0.63270    0.71529    0.28290    1.000
    O186     O        0.62390    0.70312    0.01450    1.000
    O187     O        0.58940    0.84172    0.72780    1.000
    O188     O        0.61660    0.89660    0.45600    1.000
    O189     O        0.61630    0.91441    0.20620    1.000
    O190     O        0.64380    0.81083    0.39740    1.000
    O191     O        0.80970    0.81752    0.27110    1.000
    O192     O        0.79460    0.81137    0.95450    1.000
    Cd32     Cd       0.34256    0.81273    0.28402    1.000
