# CIF file generated by openbabel 3.1.0, see https://openbabel.org
data_I
_chemical_name_common 'image0'
_cell_length_a 19.485
_cell_length_b 7.084
_cell_length_c 12.134
_cell_angle_alpha 90
_cell_angle_beta 103.33
_cell_angle_gamma 90
_space_group_name_H-M_alt 'P 1'
_space_group_name_Hall 'P 1'
loop_
    _symmetry_equiv_pos_as_xyz
    x,y,z
loop_
    _atom_site_label
    _atom_site_type_symbol
    _atom_site_fract_x
    _atom_site_fract_y
    _atom_site_fract_z
    _atom_site_occupancy
    Co1      Co       0.71617    0.85665    0.86277    1.000
    O1       O        0.68779    0.83520    0.01764    1.000
    O2       O        0.73958    0.08530    0.11490    1.000
    N1       N        0.72012    0.85480    0.51617    1.000
    N2       N        0.74073    0.87850    0.70310    1.000
    N3       N        0.50036    0.71020    0.25130    1.000
    N4       N        0.38464    0.73920    0.20390    1.000
    C1       C        0.68087    0.84170    0.40120    1.000
    C2       C        0.61187    0.77290    0.38090    1.000
    H1       H        0.59240    0.73200    0.44170    1.000
    C3       C        0.57241    0.76570    0.27020    1.000
    C4       C        0.60151    0.81600    0.18000    1.000
    H2       H        0.57460    0.80500    0.10430    1.000
    C5       C        0.67069    0.88270    0.20190    1.000
    C6       C        0.71007    0.89910    0.31300    1.000
    H3       H        0.75650    0.94920    0.32810    1.000
    C7       C        0.69135    0.88260    0.60710    1.000
    H4       H        0.64250    0.90230    0.60250    1.000
    C8       C        0.80373    0.85120    0.67150    1.000
    H5       H        0.84870    0.84380    0.72250    1.000
    C9       C        0.79232    0.83640    0.55730    1.000
    H6       H        0.82680    0.81740    0.51430    1.000
    C10      C        0.44492    0.81040    0.19280    1.000
    H7       H        0.44900    0.91910    0.14890    1.000
    C11      C        0.40247    0.58260    0.27280    1.000
    H8       H        0.36970    0.50010    0.29530    1.000
    C12      C        0.47343    0.56430    0.30330    1.000
    H9       H        0.49940    0.46990    0.35090    1.000
    C13      C        0.70204    0.94180    0.10500    1.000
    Co2      Co       0.21617    0.35665    0.86277    1.000
    O3       O        0.18779    0.33520    0.01764    1.000
    O4       O        0.23958    0.58530    0.11490    1.000
    N5       N        0.22012    0.35480    0.51617    1.000
    N6       N        0.24073    0.37850    0.70310    1.000
    N7       N        0.00036    0.21020    0.25130    1.000
    N8       N        0.88464    0.23920    0.20390    1.000
    C14      C        0.18087    0.34170    0.40120    1.000
    C15      C        0.11187    0.27290    0.38090    1.000
    H10      H        0.09240    0.23200    0.44170    1.000
    C16      C        0.07241    0.26570    0.27020    1.000
    C17      C        0.10151    0.31600    0.18000    1.000
    H11      H        0.07460    0.30500    0.10430    1.000
    C18      C        0.17069    0.38270    0.20190    1.000
    C19      C        0.21007    0.39910    0.31300    1.000
    H12      H        0.25650    0.44920    0.32810    1.000
    C20      C        0.19135    0.38260    0.60710    1.000
    H13      H        0.14250    0.40230    0.60250    1.000
    C21      C        0.30373    0.35120    0.67150    1.000
    H14      H        0.34870    0.34380    0.72250    1.000
    C22      C        0.29232    0.33640    0.55730    1.000
    H15      H        0.32680    0.31740    0.51430    1.000
    C23      C        0.94492    0.31040    0.19280    1.000
    H16      H        0.94900    0.41910    0.14890    1.000
    C24      C        0.90247    0.08260    0.27280    1.000
    H17      H        0.86970    0.00010    0.29530    1.000
    C25      C        0.97343    0.06430    0.30330    1.000
    H18      H        0.99940    0.96990    0.35090    1.000
    C26      C        0.20204    0.44180    0.10500    1.000
    Co3      Co       0.28383    0.85665    0.13723    1.000
    O5       O        0.31221    0.83520    0.98236    1.000
    O6       O        0.26042    0.08530    0.88510    1.000
    N9       N        0.27988    0.85480    0.48383    1.000
    N10      N        0.25927    0.87850    0.29690    1.000
    N11      N        0.49964    0.71020    0.74870    1.000
    N12      N        0.61536    0.73920    0.79610    1.000
    C27      C        0.31913    0.84170    0.59880    1.000
    C28      C        0.38813    0.77290    0.61910    1.000
    H19      H        0.40760    0.73200    0.55830    1.000
    C29      C        0.42759    0.76570    0.72980    1.000
    C30      C        0.39849    0.81600    0.82000    1.000
    H20      H        0.42540    0.80500    0.89570    1.000
    C31      C        0.32931    0.88270    0.79810    1.000
    C32      C        0.28993    0.89910    0.68700    1.000
    H21      H        0.24350    0.94920    0.67190    1.000
    C33      C        0.30865    0.88260    0.39290    1.000
    H22      H        0.35750    0.90230    0.39750    1.000
    C34      C        0.19627    0.85120    0.32850    1.000
    H23      H        0.15130    0.84380    0.27750    1.000
    C35      C        0.20768    0.83640    0.44270    1.000
    H24      H        0.17320    0.81740    0.48570    1.000
    C36      C        0.55508    0.81040    0.80720    1.000
    H25      H        0.55100    0.91910    0.85110    1.000
    C37      C        0.59753    0.58260    0.72720    1.000
    H26      H        0.63030    0.50010    0.70470    1.000
    C38      C        0.52657    0.56430    0.69670    1.000
    H27      H        0.50060    0.46990    0.64910    1.000
    C39      C        0.29796    0.94180    0.89500    1.000
    Co4      Co       0.78383    0.35665    0.13723    1.000
    O7       O        0.81221    0.33520    0.98236    1.000
    O8       O        0.76042    0.58530    0.88510    1.000
    N13      N        0.77988    0.35480    0.48383    1.000
    N14      N        0.75927    0.37850    0.29690    1.000
    N15      N        0.99964    0.21020    0.74870    1.000
    N16      N        0.11536    0.23920    0.79610    1.000
    C40      C        0.81913    0.34170    0.59880    1.000
    C41      C        0.88813    0.27290    0.61910    1.000
    H28      H        0.90760    0.23200    0.55830    1.000
    C42      C        0.92759    0.26570    0.72980    1.000
    C43      C        0.89849    0.31600    0.82000    1.000
    H29      H        0.92540    0.30500    0.89570    1.000
    C44      C        0.82931    0.38270    0.79810    1.000
    C45      C        0.78993    0.39910    0.68700    1.000
    H30      H        0.74350    0.44920    0.67190    1.000
    C46      C        0.80865    0.38260    0.39290    1.000
    H31      H        0.85750    0.40230    0.39750    1.000
    C47      C        0.69627    0.35120    0.32850    1.000
    H32      H        0.65130    0.34380    0.27750    1.000
    C48      C        0.70768    0.33640    0.44270    1.000
    H33      H        0.67320    0.31740    0.48570    1.000
    C49      C        0.05508    0.31040    0.80720    1.000
    H34      H        0.05100    0.41910    0.85110    1.000
    C50      C        0.09753    0.08260    0.72720    1.000
    H35      H        0.13030    0.00010    0.70470    1.000
    C51      C        0.02657    0.06430    0.69670    1.000
    H36      H        0.00060    0.96990    0.64910    1.000
    C52      C        0.79796    0.44180    0.89500    1.000
