# CIF file generated by openbabel 3.1.0, see https://openbabel.org
data_I
_chemical_name_common 'image0'
_cell_length_a 14.529
_cell_length_b 16.543
_cell_length_c 21.125
_cell_angle_alpha 90
_cell_angle_beta 104.305
_cell_angle_gamma 90
_space_group_name_H-M_alt 'P 1'
_space_group_name_Hall 'P 1'
loop_
    _symmetry_equiv_pos_as_xyz
    x,y,z
loop_
    _atom_site_label
    _atom_site_type_symbol
    _atom_site_fract_x
    _atom_site_fract_y
    _atom_site_fract_z
    _atom_site_occupancy
    Zn1      Zn       0.41470    0.45544    0.17261    1.000
    O1       O        0.34130    0.33730    0.09760    1.000
    O2       O        0.27650    0.43760    0.14110    1.000
    O3       O        0.55170    0.09030    0.69720    1.000
    O4       O        0.45570    0.14090    0.75400    1.000
    O5       O        0.36350    0.74260    0.91070    1.000
    O6       O        0.82000    0.35050    0.96640    1.000
    N1       N        0.42940    0.94990    0.73840    1.000
    N2       N        0.44010    0.52030    0.09480    1.000
    N3       N        0.49620    0.76380    0.87410    1.000
    H1       H        0.55390    0.74470    0.87830    1.000
    N4       N        0.50160    0.67600    0.95360    1.000
    H2       H        0.56110    0.67270    0.95110    1.000
    N5       N        0.92230    0.27580    0.92520    1.000
    C1       C        0.27020    0.37540    0.10160    1.000
    C2       C        0.17570    0.35500    0.06340    1.000
    C3       C        0.09810    0.40580    0.05890    1.000
    H3       H        0.10470    0.45390    0.08420    1.000
    C4       C        0.01090    0.38620    0.01730    1.000
    H4       H        0.95790    0.42090    0.01420    1.000
    C5       C        0.00130    0.31580    0.98030    1.000
    C6       C        0.07890    0.26510    0.98480    1.000
    H5       H        0.07230    0.21700    0.95950    1.000
    C7       C        0.16610    0.28460    0.02640    1.000
    H6       H        0.21910    0.24990    0.02950    1.000
    C8       C        0.53660    0.13450    0.74310    1.000
    C9       C        0.61950    0.17820    0.78440    1.000
    C10      C        0.70840    0.17480    0.77100    1.000
    H7       H        0.71620    0.14690    0.73330    1.000
    C11      C        0.78580    0.21220    0.81260    1.000
    H8       H        0.84660    0.20990    0.80340    1.000
    C12      C        0.77440    0.25290    0.86770    1.000
    C13      C        0.68550    0.25630    0.88120    1.000
    H9       H        0.67770    0.28410    0.91880    1.000
    C14      C        0.60810    0.21890    0.83950    1.000
    H10      H        0.54740    0.22120    0.84870    1.000
    C15      C        0.83910    0.29850    0.92360    1.000
    C16      C        0.51390    0.91400    0.75320    1.000
    H11      H        0.56060    0.93200    0.73200    1.000
    C17      C        0.53700    0.85260    0.79740    1.000
    H12      H        0.59790    0.82790    0.80630    1.000
    C18      C        0.46910    0.82730    0.82890    1.000
    C19      C        0.38170    0.86280    0.81210    1.000
    H13      H        0.33300    0.84580    0.83200    1.000
    C20      C        0.36490    0.92200    0.76710    1.000
    H14      H        0.30320    0.94510    0.75540    1.000
    C21      C        0.36910    0.55890    0.05330    1.000
    H15      H        0.30580    0.55000    0.05650    1.000
    C22      C        0.38480    0.61170    0.00580    1.000
    H16      H        0.33250    0.63780    0.97710    1.000
    C23      C        0.47580    0.62630    0.00000    1.000
    C24      C        0.55020    0.58660    0.04400    1.000
    H17      H        0.61430    0.59460    0.04230    1.000
    C25      C        0.52760    0.53510    0.09030    1.000
    H18      H        0.57830    0.50910    0.12040    1.000
    C26      C        0.44510    0.72870    0.91180    1.000
    N6       N        0.87520    0.27940    0.89210    1.000
    C27      C        0.89400    0.32280    0.95300    1.000
    Zn2      Zn       0.41470    0.04456    0.67261    1.000
    O7       O        0.34130    0.16270    0.59760    1.000
    O8       O        0.27650    0.06240    0.64110    1.000
    O9       O        0.55170    0.40970    0.19720    1.000
    O10      O        0.45570    0.35910    0.25400    1.000
    O11      O        0.36350    0.75740    0.41070    1.000
    O12      O        0.82000    0.14950    0.46640    1.000
    N7       N        0.42940    0.55010    0.23840    1.000
    N8       N        0.44010    0.97970    0.59480    1.000
    N9       N        0.49620    0.73620    0.37410    1.000
    H19      H        0.55390    0.75530    0.37830    1.000
    N10      N        0.50160    0.82400    0.45360    1.000
    H20      H        0.56110    0.82730    0.45110    1.000
    N11      N        0.92230    0.22420    0.42520    1.000
    C28      C        0.27020    0.12460    0.60160    1.000
    C29      C        0.17570    0.14500    0.56340    1.000
    C30      C        0.09810    0.09420    0.55890    1.000
    H21      H        0.10470    0.04610    0.58420    1.000
    C31      C        0.01090    0.11380    0.51730    1.000
    H22      H        0.95790    0.07910    0.51420    1.000
    C32      C        0.00130    0.18420    0.48030    1.000
    C33      C        0.07890    0.23490    0.48480    1.000
    H23      H        0.07230    0.28300    0.45950    1.000
    C34      C        0.16610    0.21540    0.52640    1.000
    H24      H        0.21910    0.25010    0.52950    1.000
    C35      C        0.53660    0.36550    0.24310    1.000
    C36      C        0.61950    0.32180    0.28440    1.000
    C37      C        0.70840    0.32520    0.27100    1.000
    H25      H        0.71620    0.35310    0.23330    1.000
    C38      C        0.78580    0.28780    0.31260    1.000
    H26      H        0.84660    0.29010    0.30340    1.000
    C39      C        0.77440    0.24710    0.36770    1.000
    C40      C        0.68550    0.24370    0.38120    1.000
    H27      H        0.67770    0.21590    0.41880    1.000
    C41      C        0.60810    0.28110    0.33950    1.000
    H28      H        0.54740    0.27880    0.34870    1.000
    C42      C        0.83910    0.20150    0.42360    1.000
    C43      C        0.51390    0.58600    0.25320    1.000
    H29      H        0.56060    0.56800    0.23200    1.000
    C44      C        0.53700    0.64740    0.29740    1.000
    H30      H        0.59790    0.67210    0.30630    1.000
    C45      C        0.46910    0.67270    0.32890    1.000
    C46      C        0.38170    0.63720    0.31210    1.000
    H31      H        0.33300    0.65420    0.33200    1.000
    C47      C        0.36490    0.57800    0.26710    1.000
    H32      H        0.30320    0.55490    0.25540    1.000
    C48      C        0.36910    0.94110    0.55330    1.000
    H33      H        0.30580    0.95000    0.55650    1.000
    C49      C        0.38480    0.88830    0.50580    1.000
    H34      H        0.33250    0.86220    0.47710    1.000
    C50      C        0.47580    0.87370    0.50000    1.000
    C51      C        0.55020    0.91340    0.54400    1.000
    H35      H        0.61430    0.90540    0.54230    1.000
    C52      C        0.52760    0.96490    0.59030    1.000
    H36      H        0.57830    0.99090    0.62040    1.000
    C53      C        0.44510    0.77130    0.41180    1.000
    N12      N        0.87520    0.22060    0.39210    1.000
    C54      C        0.89400    0.17720    0.45300    1.000
    Zn3      Zn       0.58530    0.95544    0.32739    1.000
    O13      O        0.65870    0.83730    0.40240    1.000
    O14      O        0.72350    0.93760    0.35890    1.000
    O15      O        0.44830    0.59030    0.80280    1.000
    O16      O        0.54430    0.64090    0.74600    1.000
    O17      O        0.63650    0.24260    0.58930    1.000
    O18      O        0.18000    0.85050    0.53360    1.000
    N13      N        0.57060    0.44990    0.76160    1.000
    N14      N        0.55990    0.02030    0.40520    1.000
    N15      N        0.50380    0.26380    0.62590    1.000
    H37      H        0.44610    0.24470    0.62170    1.000
    N16      N        0.49840    0.17600    0.54640    1.000
    H38      H        0.43890    0.17270    0.54890    1.000
    N17      N        0.07770    0.77580    0.57480    1.000
    C55      C        0.72980    0.87540    0.39840    1.000
    C56      C        0.82430    0.85500    0.43660    1.000
    C57      C        0.90190    0.90580    0.44110    1.000
    H39      H        0.89530    0.95390    0.41580    1.000
    C58      C        0.98910    0.88620    0.48270    1.000
    H40      H        0.04210    0.92090    0.48580    1.000
    C59      C        0.99870    0.81580    0.51970    1.000
    C60      C        0.92110    0.76510    0.51520    1.000
    H41      H        0.92770    0.71700    0.54050    1.000
    C61      C        0.83390    0.78460    0.47360    1.000
    H42      H        0.78090    0.74990    0.47050    1.000
    C62      C        0.46340    0.63450    0.75690    1.000
    C63      C        0.38050    0.67820    0.71560    1.000
    C64      C        0.29160    0.67480    0.72900    1.000
    H43      H        0.28380    0.64690    0.76670    1.000
    C65      C        0.21420    0.71220    0.68740    1.000
    H44      H        0.15340    0.70990    0.69660    1.000
    C66      C        0.22560    0.75290    0.63230    1.000
    C67      C        0.31450    0.75630    0.61880    1.000
    H45      H        0.32230    0.78410    0.58120    1.000
    C68      C        0.39190    0.71890    0.66050    1.000
    H46      H        0.45260    0.72120    0.65130    1.000
    C69      C        0.16090    0.79850    0.57640    1.000
    C70      C        0.48610    0.41400    0.74680    1.000
    H47      H        0.43940    0.43200    0.76800    1.000
    C71      C        0.46300    0.35260    0.70260    1.000
    H48      H        0.40210    0.32790    0.69370    1.000
    C72      C        0.53090    0.32730    0.67110    1.000
    C73      C        0.61830    0.36280    0.68790    1.000
    H49      H        0.66700    0.34580    0.66800    1.000
    C74      C        0.63510    0.42200    0.73290    1.000
    H50      H        0.69680    0.44510    0.74460    1.000
    C75      C        0.63090    0.05890    0.44670    1.000
    H51      H        0.69420    0.05000    0.44350    1.000
    C76      C        0.61520    0.11170    0.49420    1.000
    H52      H        0.66750    0.13780    0.52290    1.000
    C77      C        0.52420    0.12630    0.50000    1.000
    C78      C        0.44980    0.08660    0.45600    1.000
    H53      H        0.38570    0.09460    0.45770    1.000
    C79      C        0.47240    0.03510    0.40970    1.000
    H54      H        0.42170    0.00910    0.37960    1.000
    C80      C        0.55490    0.22870    0.58820    1.000
    N18      N        0.12480    0.77940    0.60790    1.000
    C81      C        0.10600    0.82280    0.54700    1.000
    Zn4      Zn       0.58530    0.54456    0.82739    1.000
    O19      O        0.65870    0.66270    0.90240    1.000
    O20      O        0.72350    0.56240    0.85890    1.000
    O21      O        0.44830    0.90970    0.30280    1.000
    O22      O        0.54430    0.85910    0.24600    1.000
    O23      O        0.63650    0.25740    0.08930    1.000
    O24      O        0.18000    0.64950    0.03360    1.000
    N19      N        0.57060    0.05010    0.26160    1.000
    N20      N        0.55990    0.47970    0.90520    1.000
    N21      N        0.50380    0.23620    0.12590    1.000
    H55      H        0.44610    0.25530    0.12170    1.000
    N22      N        0.49840    0.32400    0.04640    1.000
    H56      H        0.43890    0.32730    0.04890    1.000
    N23      N        0.07770    0.72420    0.07480    1.000
    C82      C        0.72980    0.62460    0.89840    1.000
    C83      C        0.82430    0.64500    0.93660    1.000
    C84      C        0.90190    0.59420    0.94110    1.000
    H57      H        0.89530    0.54610    0.91580    1.000
    C85      C        0.98910    0.61380    0.98270    1.000
    H58      H        0.04210    0.57910    0.98580    1.000
    C86      C        0.99870    0.68420    0.01970    1.000
    C87      C        0.92110    0.73490    0.01520    1.000
    H59      H        0.92770    0.78300    0.04050    1.000
    C88      C        0.83390    0.71540    0.97360    1.000
    H60      H        0.78090    0.75010    0.97050    1.000
    C89      C        0.46340    0.86550    0.25690    1.000
    C90      C        0.38050    0.82180    0.21560    1.000
    C91      C        0.29160    0.82520    0.22900    1.000
    H61      H        0.28380    0.85310    0.26670    1.000
    C92      C        0.21420    0.78780    0.18740    1.000
    H62      H        0.15340    0.79010    0.19660    1.000
    C93      C        0.22560    0.74710    0.13230    1.000
    C94      C        0.31450    0.74370    0.11880    1.000
    H63      H        0.32230    0.71590    0.08120    1.000
    C95      C        0.39190    0.78110    0.16050    1.000
    H64      H        0.45260    0.77880    0.15130    1.000
    C96      C        0.16090    0.70150    0.07640    1.000
    C97      C        0.48610    0.08600    0.24680    1.000
    H65      H        0.43940    0.06800    0.26800    1.000
    C98      C        0.46300    0.14740    0.20260    1.000
    H66      H        0.40210    0.17210    0.19370    1.000
    C99      C        0.53090    0.17270    0.17110    1.000
    C100     C        0.61830    0.13720    0.18790    1.000
    H67      H        0.66700    0.15420    0.16800    1.000
    C101     C        0.63510    0.07800    0.23290    1.000
    H68      H        0.69680    0.05490    0.24460    1.000
    C102     C        0.63090    0.44110    0.94670    1.000
    H69      H        0.69420    0.45000    0.94350    1.000
    C103     C        0.61520    0.38830    0.99420    1.000
    H70      H        0.66750    0.36220    0.02290    1.000
    C104     C        0.52420    0.37370    0.00000    1.000
    C105     C        0.44980    0.41340    0.95600    1.000
    H71      H        0.38570    0.40540    0.95770    1.000
    C106     C        0.47240    0.46490    0.90970    1.000
    H72      H        0.42170    0.49090    0.87960    1.000
    C107     C        0.55490    0.27130    0.08820    1.000
    N24      N        0.12480    0.72060    0.10790    1.000
    C108     C        0.10600    0.67720    0.04700    1.000
