# CIF file generated by openbabel 3.1.0, see https://openbabel.org
data_I
_chemical_name_common 'image0'
_cell_length_a 11.032
_cell_length_b 11.032
_cell_length_c 22.838
_cell_angle_alpha 90
_cell_angle_beta 90
_cell_angle_gamma 120
_space_group_name_H-M_alt 'P 1'
_space_group_name_Hall 'P 1'
loop_
    _symmetry_equiv_pos_as_xyz
    x,y,z
loop_
    _atom_site_label
    _atom_site_type_symbol
    _atom_site_fract_x
    _atom_site_fract_y
    _atom_site_fract_z
    _atom_site_occupancy
    C1       C        0.61430    0.57790    0.62510    1.000
    H1       H        0.69670    0.63410    0.60470    1.000
    C2       C        0.61960    0.58150    0.68600    1.000
    H2       H        0.70360    0.63870    0.70520    1.000
    C3       C        0.42210    0.03640    0.62510    1.000
    H3       H        0.36590    0.06260    0.60470    1.000
    C4       C        0.41850    0.03810    0.68600    1.000
    H4       H        0.36130    0.06490    0.70520    1.000
    C5       C        0.96360    0.38570    0.62510    1.000
    H5       H        0.93740    0.30330    0.60470    1.000
    C6       C        0.96190    0.38040    0.68600    1.000
    H6       H        0.93510    0.29640    0.70520    1.000
    C7       C        0.38570    0.42210    0.62510    1.000
    H7       H        0.30330    0.36590    0.60470    1.000
    C8       C        0.38040    0.41850    0.68600    1.000
    H8       H        0.29640    0.36130    0.70520    1.000
    C9       C        0.57790    0.96360    0.62510    1.000
    H9       H        0.63410    0.93740    0.60470    1.000
    C10      C        0.58150    0.96190    0.68600    1.000
    H10      H        0.63870    0.93510    0.70520    1.000
    C11      C        0.03640    0.61430    0.62510    1.000
    H11      H        0.06260    0.69670    0.60470    1.000
    C12      C        0.03810    0.61960    0.68600    1.000
    H12      H        0.06490    0.70360    0.70520    1.000
    C13      C        0.57790    0.61430    0.87490    1.000
    H13      H        0.63410    0.69670    0.89530    1.000
    C14      C        0.58150    0.61960    0.81400    1.000
    H14      H        0.63870    0.70360    0.79480    1.000
    C15      C        0.03640    0.42210    0.87490    1.000
    H15      H        0.06260    0.36590    0.89530    1.000
    C16      C        0.03810    0.41850    0.81400    1.000
    H16      H        0.06490    0.36130    0.79480    1.000
    C17      C        0.38570    0.96360    0.87490    1.000
    H17      H        0.30330    0.93740    0.89530    1.000
    C18      C        0.38040    0.96190    0.81400    1.000
    H18      H        0.29640    0.93510    0.79480    1.000
    C19      C        0.42210    0.38570    0.87490    1.000
    H19      H        0.36590    0.30330    0.89530    1.000
    C20      C        0.41850    0.38040    0.81400    1.000
    H20      H        0.36130    0.29640    0.79480    1.000
    C21      C        0.96360    0.57790    0.87490    1.000
    H21      H        0.93740    0.63410    0.89530    1.000
    C22      C        0.96190    0.58150    0.81400    1.000
    H22      H        0.93510    0.63870    0.79480    1.000
    C23      C        0.61430    0.03640    0.87490    1.000
    H23      H        0.69670    0.06260    0.89530    1.000
    C24      C        0.61960    0.03810    0.81400    1.000
    H24      H        0.70360    0.06490    0.79480    1.000
    C25      C        0.38570    0.42210    0.37490    1.000
    H25      H        0.30330    0.36590    0.39530    1.000
    C26      C        0.38040    0.41850    0.31400    1.000
    H26      H        0.29640    0.36130    0.29480    1.000
    C27      C        0.57790    0.96360    0.37490    1.000
    H27      H        0.63410    0.93740    0.39530    1.000
    C28      C        0.58150    0.96190    0.31400    1.000
    H28      H        0.63870    0.93510    0.29480    1.000
    C29      C        0.03640    0.61430    0.37490    1.000
    H29      H        0.06260    0.69670    0.39530    1.000
    C30      C        0.03810    0.61960    0.31400    1.000
    H30      H        0.06490    0.70360    0.29480    1.000
    C31      C        0.61430    0.57790    0.37490    1.000
    H31      H        0.69670    0.63410    0.39530    1.000
    C32      C        0.61960    0.58150    0.31400    1.000
    H32      H        0.70360    0.63870    0.29480    1.000
    C33      C        0.42210    0.03640    0.37490    1.000
    H33      H        0.36590    0.06260    0.39530    1.000
    C34      C        0.41850    0.03810    0.31400    1.000
    H34      H        0.36130    0.06490    0.29480    1.000
    C35      C        0.96360    0.38570    0.37490    1.000
    H35      H        0.93740    0.30330    0.39530    1.000
    C36      C        0.96190    0.38040    0.31400    1.000
    H36      H        0.93510    0.29640    0.29480    1.000
    C37      C        0.42210    0.38570    0.12510    1.000
    H37      H        0.36590    0.30330    0.10470    1.000
    C38      C        0.41850    0.38040    0.18600    1.000
    H38      H        0.36130    0.29640    0.20520    1.000
    C39      C        0.96360    0.57790    0.12510    1.000
    H39      H        0.93740    0.63410    0.10470    1.000
    C40      C        0.96190    0.58150    0.18600    1.000
    H40      H        0.93510    0.63870    0.20520    1.000
    C41      C        0.61430    0.03640    0.12510    1.000
    H41      H        0.69670    0.06260    0.10470    1.000
    C42      C        0.61960    0.03810    0.18600    1.000
    H42      H        0.70360    0.06490    0.20520    1.000
    C43      C        0.57790    0.61430    0.12510    1.000
    H43      H        0.63410    0.69670    0.10470    1.000
    C44      C        0.58150    0.61960    0.18600    1.000
    H44      H        0.63870    0.70360    0.20520    1.000
    C45      C        0.03640    0.42210    0.12510    1.000
    H45      H        0.06260    0.36590    0.10470    1.000
    C46      C        0.03810    0.41850    0.18600    1.000
    H46      H        0.06490    0.36130    0.20520    1.000
    C47      C        0.38570    0.96360    0.12510    1.000
    H47      H        0.30330    0.93740    0.10470    1.000
    C48      C        0.38040    0.96190    0.18600    1.000
    H48      H        0.29640    0.93510    0.20520    1.000
    Co1      Co       0.50000    0.50000    0.50000    1.000
    Co2      Co       0.50000    0.00000    0.50000    1.000
    Co3      Co       0.00000    0.50000    0.50000    1.000
    Co4      Co       0.50000    0.50000    0.00000    1.000
    Co5      Co       0.00000    0.50000    0.00000    1.000
    Co6      Co       0.50000    0.00000    0.00000    1.000
    P1       P        0.33333    0.66667    0.47793    1.000
    P2       P        0.66667    0.33333    0.47793    1.000
    P3       P        0.66667    0.33333    0.02207    1.000
    P4       P        0.33333    0.66667    0.02207    1.000
    P5       P        0.66667    0.33333    0.52207    1.000
    P6       P        0.33333    0.66667    0.52207    1.000
    P7       P        0.33333    0.66667    0.97793    1.000
    P8       P        0.66667    0.33333    0.97793    1.000
    O1       O        0.33740    0.53680    0.50000    1.000
    O2       O        0.46320    0.80060    0.50000    1.000
    O3       O        0.19940    0.66260    0.50000    1.000
    O4       O        0.66260    0.46320    0.50000    1.000
    O5       O        0.53680    0.19940    0.50000    1.000
    O6       O        0.80060    0.33740    0.50000    1.000
    O7       O        0.53680    0.33740    0.00000    1.000
    O8       O        0.80060    0.46320    0.00000    1.000
    O9       O        0.66260    0.19940    0.00000    1.000
    O10      O        0.46320    0.66260    0.00000    1.000
    O11      O        0.19940    0.53680    0.00000    1.000
    O12      O        0.33740    0.80060    0.00000    1.000
    N1       N        0.50000    0.50000    0.59480    1.000
    C49      C        0.50000    0.50000    0.71740    1.000
    N2       N        0.50000    0.00000    0.59480    1.000
    C50      C        0.50000    0.00000    0.71740    1.000
    N3       N        0.00000    0.50000    0.59480    1.000
    C51      C        0.00000    0.50000    0.71740    1.000
    N4       N        0.50000    0.50000    0.90520    1.000
    C52      C        0.50000    0.50000    0.78260    1.000
    N5       N        0.00000    0.50000    0.90520    1.000
    C53      C        0.00000    0.50000    0.78260    1.000
    N6       N        0.50000    0.00000    0.90520    1.000
    C54      C        0.50000    0.00000    0.78260    1.000
    N7       N        0.50000    0.50000    0.40520    1.000
    C55      C        0.50000    0.50000    0.28260    1.000
    N8       N        0.50000    0.00000    0.40520    1.000
    C56      C        0.50000    0.00000    0.28260    1.000
    N9       N        0.00000    0.50000    0.40520    1.000
    C57      C        0.00000    0.50000    0.28260    1.000
    N10      N        0.50000    0.50000    0.09480    1.000
    C58      C        0.50000    0.50000    0.21740    1.000
    N11      N        0.00000    0.50000    0.09480    1.000
    C59      C        0.00000    0.50000    0.21740    1.000
    N12      N        0.50000    0.00000    0.09480    1.000
    C60      C        0.50000    0.00000    0.21740    1.000
