# CIF file generated by openbabel 3.1.0, see https://openbabel.org
data_I
_chemical_name_common 'YOCSEQ_clean'
_cell_length_a 6.0867
_cell_length_b 9.483
_cell_length_c 10.096
_cell_angle_alpha 88.612
_cell_angle_beta 74.385
_cell_angle_gamma 77.132
_space_group_name_H-M_alt 'P 1'
_space_group_name_Hall 'P 1'
loop_
    _symmetry_equiv_pos_as_xyz
    x,y,z
loop_
    _atom_site_label
    _atom_site_type_symbol
    _atom_site_fract_x
    _atom_site_fract_y
    _atom_site_fract_z
    _atom_site_occupancy
    Gd1      Gd       0.34520    0.94175    0.70299    1.000
    Gd2      Gd       0.65480    0.05825    0.29701    1.000
    H1       H        0.73300    0.11630    0.70460    1.000
    H2       H        0.37840    0.96860    0.35140    1.000
    H3       H        0.26700    0.88370    0.29540    1.000
    H4       H        0.62160    0.03140    0.64860    1.000
    H5       H        0.27150    0.44150    0.62620    1.000
    H6       H        0.72850    0.55850    0.37380    1.000
    C1       C        0.19200    0.72170    0.59220    1.000
    C2       C        0.09300    0.60860    0.54470    1.000
    C3       C        0.80800    0.27830    0.40780    1.000
    C4       C        0.92700    0.64120    0.46610    1.000
    C5       C        0.16100    0.20640    0.57750    1.000
    C6       C        0.07300    0.04740    0.01660    1.000
    C7       C        0.07300    0.35880    0.53390    1.000
    C8       C        0.83800    0.53410    0.42430    1.000
    C9       C        0.16200    0.46590    0.57570    1.000
    C10      C        0.92700    0.95260    0.98340    1.000
    C11      C        0.83900    0.79360    0.42250    1.000
    C12      C        0.90700    0.39140    0.45530    1.000
    O1       O        0.00460    0.10590    0.13920    1.000
    O2       O        0.66350    0.87630    0.50210    1.000
    O3       O        0.67340    0.31150    0.33110    1.000
    O4       O        0.06290    0.16990    0.69330    1.000
    O5       O        0.86520    0.14760    0.44210    1.000
    O6       O        0.99540    0.89410    0.86080    1.000
    O7       O        0.39820    0.90400    0.28980    1.000
    O8       O        0.25280    0.06210    0.92620    1.000
    O9       O        0.74720    0.93790    0.07380    1.000
    O10      O        0.13480    0.85240    0.55790    1.000
    O11      O        0.32660    0.68850    0.66890    1.000
    O12      O        0.33650    0.12370    0.49790    1.000
    O13      O        0.60180    0.09600    0.71020    1.000
    O14      O        0.93710    0.83010    0.30670    1.000
