# CIF file generated by openbabel 3.1.0, see https://openbabel.org
data_I
_chemical_name_common 'image0'
_cell_length_a 21.1051
_cell_length_b 21.1051
_cell_length_c 34.8884
_cell_angle_alpha 90
_cell_angle_beta 90
_cell_angle_gamma 120
_space_group_name_H-M_alt 'P 1'
_space_group_name_Hall 'P 1'
loop_
    _symmetry_equiv_pos_as_xyz
    x,y,z
loop_
    _atom_site_label
    _atom_site_type_symbol
    _atom_site_fract_x
    _atom_site_fract_y
    _atom_site_fract_z
    _atom_site_occupancy
    Al1      Al       0.28272    0.07419    0.51538    1.000
    O1       O        0.31486    0.10464    0.56846    1.000
    C1       C        0.32761    0.10613    0.64679    1.000
    O2       O        0.36792    0.05859    0.51170    1.000
    C2       C        0.43749    0.94091    0.48589    1.000
    O3       O        0.24815    0.02100    0.46882    1.000
    C3       C        0.27020    0.06010    0.43210    1.000
    Al2      Al       0.94939    0.40752    0.84871    1.000
    O4       O        0.98153    0.43797    0.90179    1.000
    C4       C        0.99428    0.43946    0.98012    1.000
    O5       O        0.03459    0.39192    0.84503    1.000
    C5       C        0.10416    0.27424    0.81922    1.000
    O6       O        0.91482    0.35433    0.80215    1.000
    C6       C        0.93687    0.39343    0.76543    1.000
    Al3      Al       0.61605    0.74086    0.18205    1.000
    O7       O        0.64819    0.77131    0.23513    1.000
    C7       C        0.66094    0.77280    0.31346    1.000
    O8       O        0.70125    0.72526    0.17837    1.000
    C8       C        0.77082    0.60758    0.15256    1.000
    O9       O        0.58148    0.68767    0.13549    1.000
    C9       C        0.60353    0.72677    0.09877    1.000
    Al4      Al       0.92581    0.20853    0.51538    1.000
    O10      O        0.89536    0.21022    0.56846    1.000
    C10      C        0.89387    0.22148    0.64679    1.000
    O11      O        0.94141    0.30933    0.51170    1.000
    C11      C        0.05909    0.49658    0.48589    1.000
    O12      O        0.97900    0.22715    0.46882    1.000
    C12      C        0.93990    0.21010    0.43210    1.000
    Al5      Al       0.59248    0.54186    0.84871    1.000
    O13      O        0.56203    0.54355    0.90179    1.000
    C13      C        0.56054    0.55481    0.98012    1.000
    O14      O        0.60808    0.64266    0.84503    1.000
    C14      C        0.72576    0.82991    0.81922    1.000
    O15      O        0.64567    0.56048    0.80215    1.000
    C15      C        0.60657    0.54343    0.76543    1.000
    Al6      Al       0.25914    0.87520    0.18205    1.000
    O16      O        0.22869    0.87689    0.23513    1.000
    C16      C        0.22720    0.88815    0.31346    1.000
    O17      O        0.27474    0.97600    0.17837    1.000
    C17      C        0.39242    0.16325    0.15256    1.000
    O18      O        0.31233    0.89382    0.13549    1.000
    C18      C        0.27323    0.87677    0.09877    1.000
    Al7      Al       0.79147    0.71728    0.51538    1.000
    O19      O        0.78978    0.68514    0.56846    1.000
    C19      C        0.77852    0.67239    0.64679    1.000
    O20      O        0.69067    0.63208    0.51170    1.000
    C20      C        0.50342    0.56251    0.48589    1.000
    O21      O        0.77285    0.75185    0.46882    1.000
    C21      C        0.78990    0.72980    0.43210    1.000
    Al8      Al       0.45814    0.05061    0.84871    1.000
    O22      O        0.45645    0.01847    0.90179    1.000
    C22      C        0.44519    0.00572    0.98012    1.000
    O23      O        0.35734    0.96541    0.84503    1.000
    C23      C        0.17009    0.89584    0.81922    1.000
    O24      O        0.43952    0.08518    0.80215    1.000
    C24      C        0.45657    0.06313    0.76543    1.000
    Al9      Al       0.12480    0.38395    0.18205    1.000
    O25      O        0.12311    0.35181    0.23513    1.000
    C25      C        0.11185    0.33906    0.31346    1.000
    O26      O        0.02400    0.29875    0.17837    1.000
    C26      C        0.83675    0.22918    0.15256    1.000
    O27      O        0.10618    0.41852    0.13549    1.000
    C27      C        0.12323    0.39647    0.09877    1.000
    Al10     Al       0.07419    0.28272    0.48462    1.000
    O28      O        0.10464    0.31486    0.43154    1.000
    C28      C        0.10613    0.32761    0.35321    1.000
    O29      O        0.05859    0.36792    0.48830    1.000
    C29      C        0.94091    0.43749    0.51411    1.000
    O30      O        0.02100    0.24815    0.53118    1.000
    C30      C        0.06010    0.27020    0.56790    1.000
    Al11     Al       0.74086    0.61605    0.81795    1.000
    O31      O        0.77131    0.64819    0.76487    1.000
    C31      C        0.77280    0.66094    0.68654    1.000
    O32      O        0.72526    0.70125    0.82163    1.000
    C32      C        0.60758    0.77082    0.84744    1.000
    O33      O        0.68767    0.58148    0.86451    1.000
    C33      C        0.72677    0.60353    0.90123    1.000
    Al12     Al       0.40752    0.94939    0.15129    1.000
    O34      O        0.43797    0.98153    0.09821    1.000
    C34      C        0.43946    0.99428    0.01988    1.000
    O35      O        0.39192    0.03459    0.15497    1.000
    C35      C        0.27424    0.10416    0.18078    1.000
    O36      O        0.35433    0.91482    0.19785    1.000
    C36      C        0.39343    0.93687    0.23457    1.000
    Al13     Al       0.20853    0.92581    0.48462    1.000
    O37      O        0.21022    0.89536    0.43154    1.000
    C37      C        0.22148    0.89387    0.35321    1.000
    O38      O        0.30933    0.94141    0.48830    1.000
    C38      C        0.49658    0.05909    0.51411    1.000
    O39      O        0.22715    0.97900    0.53118    1.000
    C39      C        0.21010    0.93990    0.56790    1.000
    Al14     Al       0.87520    0.25914    0.81795    1.000
    O40      O        0.87689    0.22869    0.76487    1.000
    C40      C        0.88815    0.22720    0.68654    1.000
    O41      O        0.97600    0.27474    0.82163    1.000
    C41      C        0.16325    0.39242    0.84744    1.000
    O42      O        0.89382    0.31233    0.86451    1.000
    C42      C        0.87677    0.27323    0.90123    1.000
    Al15     Al       0.54186    0.59248    0.15129    1.000
    O43      O        0.54355    0.56203    0.09821    1.000
    C43      C        0.55481    0.56054    0.01988    1.000
    O44      O        0.64266    0.60808    0.15497    1.000
    C44      C        0.82991    0.72576    0.18078    1.000
    O45      O        0.56048    0.64567    0.19785    1.000
    C45      C        0.54343    0.60657    0.23457    1.000
    Al16     Al       0.71728    0.79147    0.48462    1.000
    O46      O        0.68514    0.78978    0.43154    1.000
    C46      C        0.67239    0.77852    0.35321    1.000
    O47      O        0.63208    0.69067    0.48830    1.000
    C47      C        0.56251    0.50342    0.51411    1.000
    O48      O        0.75185    0.77285    0.53118    1.000
    C48      C        0.72980    0.78990    0.56790    1.000
    Al17     Al       0.38395    0.12480    0.81795    1.000
    O49      O        0.35181    0.12311    0.76487    1.000
    C49      C        0.33906    0.11185    0.68654    1.000
    O50      O        0.29875    0.02400    0.82163    1.000
    C50      C        0.22918    0.83675    0.84744    1.000
    O51      O        0.41852    0.10618    0.86451    1.000
    C51      C        0.39647    0.12323    0.90123    1.000
    Al18     Al       0.05061    0.45814    0.15129    1.000
    O52      O        0.01847    0.45645    0.09821    1.000
    C52      C        0.00572    0.44519    0.01988    1.000
    O53      O        0.96541    0.35734    0.15497    1.000
    C53      C        0.89584    0.17009    0.18078    1.000
    O54      O        0.08518    0.43952    0.19785    1.000
    C54      C        0.06313    0.45657    0.23457    1.000
    Al19     Al       0.71728    0.92581    0.48462    1.000
    O55      O        0.68514    0.89536    0.43154    1.000
    C55      C        0.67239    0.89387    0.35321    1.000
    O56      O        0.63208    0.94141    0.48830    1.000
    C56      C        0.56251    0.05909    0.51411    1.000
    O57      O        0.75185    0.97900    0.53118    1.000
    C57      C        0.72980    0.93990    0.56790    1.000
    Al20     Al       0.38395    0.25914    0.81795    1.000
    O58      O        0.35181    0.22869    0.76487    1.000
    C58      C        0.33906    0.22720    0.68654    1.000
    O59      O        0.29875    0.27474    0.82163    1.000
    C59      C        0.22918    0.39242    0.84744    1.000
    O60      O        0.41852    0.31233    0.86451    1.000
    C60      C        0.39647    0.27323    0.90123    1.000
    Al21     Al       0.05061    0.59248    0.15129    1.000
    O61      O        0.01847    0.56203    0.09821    1.000
    C61      C        0.00572    0.56054    0.01988    1.000
    O62      O        0.96541    0.60808    0.15497    1.000
    C62      C        0.89584    0.72576    0.18078    1.000
    O63      O        0.08518    0.64567    0.19785    1.000
    C63      C        0.06313    0.60657    0.23457    1.000
    Al22     Al       0.07419    0.79147    0.48462    1.000
    O64      O        0.10464    0.78978    0.43154    1.000
    C64      C        0.10613    0.77852    0.35321    1.000
    O65      O        0.05859    0.69067    0.48830    1.000
    C65      C        0.94091    0.50342    0.51411    1.000
    O66      O        0.02100    0.77285    0.53118    1.000
    C66      C        0.06010    0.78990    0.56790    1.000
    Al23     Al       0.74086    0.12480    0.81795    1.000
    O67      O        0.77131    0.12311    0.76487    1.000
    C67      C        0.77280    0.11185    0.68654    1.000
    O68      O        0.72526    0.02400    0.82163    1.000
    C68      C        0.60758    0.83675    0.84744    1.000
    O69      O        0.68767    0.10618    0.86451    1.000
    C69      C        0.72677    0.12323    0.90123    1.000
    Al24     Al       0.40752    0.45814    0.15129    1.000
    O70      O        0.43797    0.45645    0.09821    1.000
    C70      C        0.43946    0.44519    0.01988    1.000
    O71      O        0.39192    0.35734    0.15497    1.000
    C71      C        0.27424    0.17009    0.18078    1.000
    O72      O        0.35433    0.43952    0.19785    1.000
    C72      C        0.39343    0.45657    0.23457    1.000
    Al25     Al       0.20853    0.28272    0.48462    1.000
    O73      O        0.21022    0.31486    0.43154    1.000
    C73      C        0.22148    0.32761    0.35321    1.000
    O74      O        0.30933    0.36792    0.48830    1.000
    C74      C        0.49658    0.43749    0.51411    1.000
    O75      O        0.22715    0.24815    0.53118    1.000
    C75      C        0.21010    0.27020    0.56790    1.000
    Al26     Al       0.87520    0.61605    0.81795    1.000
    O76      O        0.87689    0.64819    0.76487    1.000
    C76      C        0.88815    0.66094    0.68654    1.000
    O77      O        0.97600    0.70125    0.82163    1.000
    C77      C        0.16325    0.77082    0.84744    1.000
    O78      O        0.89382    0.58148    0.86451    1.000
    C78      C        0.87677    0.60353    0.90123    1.000
    Al27     Al       0.54186    0.94939    0.15129    1.000
    O79      O        0.54355    0.98153    0.09821    1.000
    C79      C        0.55481    0.99428    0.01988    1.000
    O80      O        0.64266    0.03459    0.15497    1.000
    C80      C        0.82991    0.10416    0.18078    1.000
    O81      O        0.56048    0.91482    0.19785    1.000
    C81      C        0.54343    0.93687    0.23457    1.000
    Al28     Al       0.92581    0.71728    0.51538    1.000
    O82      O        0.89536    0.68514    0.56846    1.000
    C82      C        0.89387    0.67239    0.64679    1.000
    O83      O        0.94141    0.63208    0.51170    1.000
    C83      C        0.05909    0.56251    0.48589    1.000
    O84      O        0.97900    0.75185    0.46882    1.000
    C84      C        0.93990    0.72980    0.43210    1.000
    Al29     Al       0.59248    0.05061    0.84871    1.000
    O85      O        0.56203    0.01847    0.90179    1.000
    C85      C        0.56054    0.00572    0.98012    1.000
    O86      O        0.60808    0.96541    0.84503    1.000
    C86      C        0.72576    0.89584    0.81922    1.000
    O87      O        0.64567    0.08518    0.80215    1.000
    C87      C        0.60657    0.06313    0.76543    1.000
    Al30     Al       0.25914    0.38395    0.18205    1.000
    O88      O        0.22869    0.35181    0.23513    1.000
    C88      C        0.22720    0.33906    0.31346    1.000
    O89      O        0.27474    0.29875    0.17837    1.000
    C89      C        0.39242    0.22918    0.15256    1.000
    O90      O        0.31233    0.41852    0.13549    1.000
    C90      C        0.27323    0.39647    0.09877    1.000
    Al31     Al       0.79147    0.07419    0.51538    1.000
    O91      O        0.78978    0.10464    0.56846    1.000
    C91      C        0.77852    0.10613    0.64679    1.000
    O92      O        0.69067    0.05859    0.51170    1.000
    C92      C        0.50342    0.94091    0.48589    1.000
    O93      O        0.77285    0.02100    0.46882    1.000
    C93      C        0.78990    0.06010    0.43210    1.000
    Al32     Al       0.45814    0.40752    0.84871    1.000
    O94      O        0.45645    0.43797    0.90179    1.000
    C94      C        0.44519    0.43946    0.98012    1.000
    O95      O        0.35734    0.39192    0.84503    1.000
    C95      C        0.17009    0.27424    0.81922    1.000
    O96      O        0.43952    0.35433    0.80215    1.000
    C96      C        0.45657    0.39343    0.76543    1.000
    Al33     Al       0.12480    0.74086    0.18205    1.000
    O97      O        0.12311    0.77131    0.23513    1.000
    C97      C        0.11185    0.77280    0.31346    1.000
    O98      O        0.02400    0.72526    0.17837    1.000
    C98      C        0.83675    0.60758    0.15256    1.000
    O99      O        0.10618    0.68767    0.13549    1.000
    C99      C        0.12323    0.72677    0.09877    1.000
    Al34     Al       0.28272    0.20853    0.51538    1.000
    O100     O        0.31486    0.21022    0.56846    1.000
    C100     C        0.32761    0.22148    0.64679    1.000
    O101     O        0.36792    0.30933    0.51170    1.000
    C101     C        0.43749    0.49658    0.48589    1.000
    O102     O        0.24815    0.22715    0.46882    1.000
    C102     C        0.27020    0.21010    0.43210    1.000
    Al35     Al       0.94939    0.54186    0.84871    1.000
    O103     O        0.98153    0.54355    0.90179    1.000
    C103     C        0.99428    0.55481    0.98012    1.000
    O104     O        0.03459    0.64266    0.84503    1.000
    C104     C        0.10416    0.82991    0.81922    1.000
    O105     O        0.91482    0.56048    0.80215    1.000
    C105     C        0.93687    0.54343    0.76543    1.000
    Al36     Al       0.61605    0.87520    0.18205    1.000
    O106     O        0.64819    0.87689    0.23513    1.000
    C106     C        0.66094    0.88815    0.31346    1.000
    O107     O        0.70125    0.97600    0.17837    1.000
    C107     C        0.77082    0.16325    0.15256    1.000
    O108     O        0.58148    0.89382    0.13549    1.000
    C108     C        0.60353    0.87677    0.09877    1.000
    C109     C        0.31580    0.15790    0.58317    1.000
    C110     C        0.32542    0.16271    0.62703    1.000
    O109     O        0.34370    0.17185    0.49654    1.000
    C111     C        0.42110    0.21055    0.48467    1.000
    O110     O        0.21490    0.10745    0.52161    1.000
    C112     C        0.14000    0.07000    0.54032    1.000
    C113     C        0.98247    0.49123    0.91650    1.000
    C114     C        0.99209    0.49604    0.96036    1.000
    O111     O        0.01037    0.50518    0.82987    1.000
    C115     C        0.08777    0.54388    0.81800    1.000
    O112     O        0.88157    0.44078    0.85494    1.000
    C116     C        0.80667    0.40333    0.87365    1.000
    C117     C        0.64913    0.82457    0.24984    1.000
    C118     C        0.65875    0.82938    0.29370    1.000
    O113     O        0.67703    0.83852    0.16321    1.000
    C119     C        0.75443    0.87722    0.15134    1.000
    O114     O        0.54823    0.77412    0.18828    1.000
    C120     C        0.47333    0.73667    0.20699    1.000
    C121     C        0.84210    0.15790    0.58317    1.000
    C122     C        0.83729    0.16271    0.62703    1.000
    O115     O        0.82815    0.17185    0.49654    1.000
    C123     C        0.78945    0.21055    0.48467    1.000
    O116     O        0.89255    0.10745    0.52161    1.000
    C124     C        0.93000    0.07000    0.54032    1.000
    C125     C        0.50877    0.49123    0.91650    1.000
    C126     C        0.50396    0.49604    0.96036    1.000
    O117     O        0.49482    0.50518    0.82987    1.000
    C127     C        0.45612    0.54388    0.81800    1.000
    O118     O        0.55922    0.44078    0.85494    1.000
    C128     C        0.59667    0.40333    0.87365    1.000
    C129     C        0.17543    0.82457    0.24984    1.000
    C130     C        0.17062    0.82938    0.29370    1.000
    O119     O        0.16148    0.83852    0.16321    1.000
    C131     C        0.12278    0.87722    0.15134    1.000
    O120     O        0.22588    0.77412    0.18828    1.000
    C132     C        0.26333    0.73667    0.20699    1.000
    C133     C        0.84210    0.68420    0.58317    1.000
    C134     C        0.83729    0.67458    0.62703    1.000
    O121     O        0.82815    0.65630    0.49654    1.000
    C135     C        0.78945    0.57890    0.48467    1.000
    O122     O        0.89255    0.78510    0.52161    1.000
    C136     C        0.93000    0.86000    0.54032    1.000
    C137     C        0.50877    0.01753    0.91650    1.000
    C138     C        0.50396    0.00791    0.96036    1.000
    O123     O        0.49482    0.98963    0.82987    1.000
    C139     C        0.45612    0.91223    0.81800    1.000
    O124     O        0.55922    0.11843    0.85494    1.000
    C140     C        0.59667    0.19333    0.87365    1.000
    C141     C        0.17543    0.35087    0.24984    1.000
    C142     C        0.17062    0.34125    0.29370    1.000
    O125     O        0.16148    0.32297    0.16321    1.000
    C143     C        0.12278    0.24557    0.15134    1.000
    O126     O        0.22588    0.45177    0.18828    1.000
    C144     C        0.26333    0.52667    0.20699    1.000
    C145     C        0.15790    0.31580    0.41683    1.000
    C146     C        0.16271    0.32542    0.37297    1.000
    O127     O        0.17185    0.34370    0.50346    1.000
    C147     C        0.21055    0.42110    0.51533    1.000
    O128     O        0.10745    0.21490    0.47839    1.000
    C148     C        0.07000    0.14000    0.45968    1.000
    C149     C        0.82457    0.64913    0.75016    1.000
    C150     C        0.82938    0.65875    0.70630    1.000
    O129     O        0.83852    0.67703    0.83679    1.000
    C151     C        0.87722    0.75443    0.84866    1.000
    O130     O        0.77412    0.54823    0.81172    1.000
    C152     C        0.73667    0.47333    0.79301    1.000
    C153     C        0.49123    0.98247    0.08350    1.000
    C154     C        0.49604    0.99209    0.03964    1.000
    O131     O        0.50518    0.01037    0.17013    1.000
    C155     C        0.54388    0.08777    0.18200    1.000
    O132     O        0.44078    0.88157    0.14506    1.000
    C156     C        0.40333    0.80667    0.12635    1.000
    C157     C        0.15790    0.84210    0.41683    1.000
    C158     C        0.16271    0.83729    0.37297    1.000
    O133     O        0.17185    0.82815    0.50346    1.000
    C159     C        0.21055    0.78945    0.51533    1.000
    O134     O        0.10745    0.89255    0.47839    1.000
    C160     C        0.07000    0.93000    0.45968    1.000
    C161     C        0.82457    0.17543    0.75016    1.000
    C162     C        0.82938    0.17062    0.70630    1.000
    O135     O        0.83852    0.16148    0.83679    1.000
    C163     C        0.87722    0.12278    0.84866    1.000
    O136     O        0.77412    0.22588    0.81172    1.000
    C164     C        0.73667    0.26333    0.79301    1.000
    C165     C        0.49123    0.50877    0.08350    1.000
    C166     C        0.49604    0.50396    0.03964    1.000
    O137     O        0.50518    0.49482    0.17013    1.000
    C167     C        0.54388    0.45612    0.18200    1.000
    O138     O        0.44078    0.55922    0.14506    1.000
    C168     C        0.40333    0.59667    0.12635    1.000
    C169     C        0.68420    0.84210    0.41683    1.000
    C170     C        0.67458    0.83729    0.37297    1.000
    O139     O        0.65630    0.82815    0.50346    1.000
    C171     C        0.57890    0.78945    0.51533    1.000
    O140     O        0.78510    0.89255    0.47839    1.000
    C172     C        0.86000    0.93000    0.45968    1.000
    C173     C        0.35087    0.17543    0.75016    1.000
    C174     C        0.34125    0.17062    0.70630    1.000
    O141     O        0.32297    0.16148    0.83679    1.000
    C175     C        0.24557    0.12278    0.84866    1.000
    O142     O        0.45177    0.22588    0.81172    1.000
    C176     C        0.52667    0.26333    0.79301    1.000
    C177     C        0.01753    0.50877    0.08350    1.000
    C178     C        0.00791    0.50396    0.03964    1.000
    O143     O        0.98963    0.49482    0.17013    1.000
    C179     C        0.91223    0.45612    0.18200    1.000
    O144     O        0.11843    0.55922    0.14506    1.000
    C180     C        0.19333    0.59667    0.12635    1.000
    C181     C        0.36092    0.00000    0.50000    1.000
    C182     C        0.43397    0.00000    0.50000    1.000
    C183     C        0.02759    0.33333    0.83333    1.000
    C184     C        0.10064    0.33333    0.83333    1.000
    C185     C        0.69425    0.66667    0.16667    1.000
    C186     C        0.76730    0.66667    0.16667    1.000
    C187     C        0.00000    0.36092    0.50000    1.000
    C188     C        0.00000    0.43397    0.50000    1.000
    C189     C        0.66667    0.69425    0.83333    1.000
    C190     C        0.66667    0.76730    0.83333    1.000
    C191     C        0.33333    0.02759    0.16667    1.000
    C192     C        0.33333    0.10064    0.16667    1.000
    C193     C        0.63908    0.63908    0.50000    1.000
    C194     C        0.56603    0.56603    0.50000    1.000
    C195     C        0.30575    0.97241    0.83333    1.000
    C196     C        0.23270    0.89936    0.83333    1.000
    C197     C        0.97241    0.30575    0.16667    1.000
    C198     C        0.89936    0.23270    0.16667    1.000
    C199     C        0.63908    0.00000    0.50000    1.000
    C200     C        0.56603    0.00000    0.50000    1.000
    C201     C        0.30575    0.33333    0.83333    1.000
    C202     C        0.23270    0.33333    0.83333    1.000
    C203     C        0.97241    0.66667    0.16667    1.000
    C204     C        0.89936    0.66667    0.16667    1.000
    C205     C        0.00000    0.63908    0.50000    1.000
    C206     C        0.00000    0.56603    0.50000    1.000
    C207     C        0.66667    0.97241    0.83333    1.000
    C208     C        0.66667    0.89936    0.83333    1.000
    C209     C        0.33333    0.30575    0.16667    1.000
    C210     C        0.33333    0.23270    0.16667    1.000
    C211     C        0.36092    0.36092    0.50000    1.000
    C212     C        0.43397    0.43397    0.50000    1.000
    C213     C        0.02759    0.69425    0.83333    1.000
    C214     C        0.10064    0.76730    0.83333    1.000
    C215     C        0.69425    0.02759    0.16667    1.000
    C216     C        0.76730    0.10064    0.16667    1.000
