# CIF file generated by openbabel 3.1.0, see https://openbabel.org
data_I
_chemical_name_common 'image0'
_cell_length_a 16.023
_cell_length_b 10.062
_cell_length_c 18.486
_cell_angle_alpha 90
_cell_angle_beta 90
_cell_angle_gamma 90
_space_group_name_H-M_alt 'P 1'
_space_group_name_Hall 'P 1'
loop_
    _symmetry_equiv_pos_as_xyz
    x,y,z
loop_
    _atom_site_label
    _atom_site_type_symbol
    _atom_site_fract_x
    _atom_site_fract_y
    _atom_site_fract_z
    _atom_site_occupancy
    Ga1      Ga       0.46002    0.31747    0.21794    1.000
    Ga2      Ga       0.64939    0.16380    0.17667    1.000
    Ga3      Ga       0.48953    0.34630    0.40851    1.000
    P1       P        0.48810    0.14240    0.07730    1.000
    P2       P        0.55800    0.11830    0.31640    1.000
    P3       P        0.31560    0.34960    0.33080    1.000
    F1       F        0.58050    0.32990    0.19120    1.000
    F2       F        0.49730    0.41030    0.30490    1.000
    O1       O        0.43440    0.21120    0.13410    1.000
    O2       O        0.55300    0.97340    0.33950    1.000
    O3       O        0.34790    0.31190    0.25600    1.000
    O4       O        0.48500    0.15420    0.26810    1.000
    O5       O        0.58020    0.13120    0.09980    1.000
    O6       O        0.64020    0.14230    0.27590    1.000
    O7       O        0.29100    0.49760    0.33350    1.000
    O8       O        0.23740    0.26890    0.34890    1.000
    O9       O        0.55790    0.20230    0.38640    1.000
    O10      O        0.37880    0.31570    0.39130    1.000
    O11      O        0.48020    0.21810    0.00630    1.000
    O12      O        0.45420    0.00040    0.06780    1.000
    Ga4      Ga       0.03998    0.68253    0.71794    1.000
    Ga5      Ga       0.85061    0.83620    0.67667    1.000
    Ga6      Ga       0.01047    0.65370    0.90851    1.000
    P4       P        0.01190    0.85760    0.57730    1.000
    P5       P        0.94200    0.88170    0.81640    1.000
    P6       P        0.18440    0.65040    0.83080    1.000
    F3       F        0.91950    0.67010    0.69120    1.000
    F4       F        0.00270    0.58970    0.80490    1.000
    O13      O        0.06560    0.78880    0.63410    1.000
    O14      O        0.94700    0.02660    0.83950    1.000
    O15      O        0.15210    0.68810    0.75600    1.000
    O16      O        0.01500    0.84580    0.76810    1.000
    O17      O        0.91980    0.86880    0.59980    1.000
    O18      O        0.85980    0.85770    0.77590    1.000
    O19      O        0.20900    0.50240    0.83350    1.000
    O20      O        0.26260    0.73110    0.84890    1.000
    O21      O        0.94210    0.79770    0.88640    1.000
    O22      O        0.12120    0.68430    0.89130    1.000
    O23      O        0.01980    0.78190    0.50630    1.000
    O24      O        0.04580    0.99960    0.56780    1.000
    Ga7      Ga       0.53998    0.81747    0.28206    1.000
    Ga8      Ga       0.35061    0.66380    0.32333    1.000
    Ga9      Ga       0.51047    0.84630    0.09149    1.000
    P7       P        0.51190    0.64240    0.42270    1.000
    P8       P        0.44200    0.61830    0.18360    1.000
    P9       P        0.68440    0.84960    0.16920    1.000
    F5       F        0.41950    0.82990    0.30880    1.000
    F6       F        0.50270    0.91030    0.19510    1.000
    O25      O        0.56560    0.71120    0.36590    1.000
    O26      O        0.44700    0.47340    0.16050    1.000
    O27      O        0.65210    0.81190    0.24400    1.000
    O28      O        0.51500    0.65420    0.23190    1.000
    O29      O        0.41980    0.63120    0.40020    1.000
    O30      O        0.35980    0.64230    0.22410    1.000
    O31      O        0.70900    0.99760    0.16650    1.000
    O32      O        0.76260    0.76890    0.15110    1.000
    O33      O        0.44210    0.70230    0.11360    1.000
    O34      O        0.62120    0.81570    0.10870    1.000
    O35      O        0.51980    0.71810    0.49370    1.000
    O36      O        0.54580    0.50040    0.43220    1.000
    Ga10     Ga       0.96002    0.18253    0.78206    1.000
    Ga11     Ga       0.14939    0.33620    0.82333    1.000
    Ga12     Ga       0.98953    0.15370    0.59149    1.000
    P10      P        0.98810    0.35760    0.92270    1.000
    P11      P        0.05800    0.38170    0.68360    1.000
    P12      P        0.81560    0.15040    0.66920    1.000
    F7       F        0.08050    0.17010    0.80880    1.000
    F8       F        0.99730    0.08970    0.69510    1.000
    O37      O        0.93440    0.28880    0.86590    1.000
    O38      O        0.05300    0.52660    0.66050    1.000
    O39      O        0.84790    0.18810    0.74400    1.000
    O40      O        0.98500    0.34580    0.73190    1.000
    O41      O        0.08020    0.36880    0.90020    1.000
    O42      O        0.14020    0.35770    0.72410    1.000
    O43      O        0.79100    0.00240    0.66650    1.000
    O44      O        0.73740    0.23110    0.65110    1.000
    O45      O        0.05790    0.29770    0.61360    1.000
    O46      O        0.87880    0.18430    0.60870    1.000
    O47      O        0.98020    0.28190    0.99370    1.000
    O48      O        0.95420    0.49960    0.93220    1.000
    Ga13     Ga       0.53998    0.68253    0.78206    1.000
    Ga14     Ga       0.35061    0.83620    0.82333    1.000
    Ga15     Ga       0.51047    0.65370    0.59149    1.000
    P13      P        0.51190    0.85760    0.92270    1.000
    P14      P        0.44200    0.88170    0.68360    1.000
    P15      P        0.68440    0.65040    0.66920    1.000
    F9       F        0.41950    0.67010    0.80880    1.000
    F10      F        0.50270    0.58970    0.69510    1.000
    O49      O        0.56560    0.78880    0.86590    1.000
    O50      O        0.44700    0.02660    0.66050    1.000
    O51      O        0.65210    0.68810    0.74400    1.000
    O52      O        0.51500    0.84580    0.73190    1.000
    O53      O        0.41980    0.86880    0.90020    1.000
    O54      O        0.35980    0.85770    0.72410    1.000
    O55      O        0.70900    0.50240    0.66650    1.000
    O56      O        0.76260    0.73110    0.65110    1.000
    O57      O        0.44210    0.79770    0.61360    1.000
    O58      O        0.62120    0.68430    0.60870    1.000
    O59      O        0.51980    0.78190    0.99370    1.000
    O60      O        0.54580    0.99960    0.93220    1.000
    Ga16     Ga       0.96002    0.31747    0.28206    1.000
    Ga17     Ga       0.14939    0.16380    0.32333    1.000
    Ga18     Ga       0.98953    0.34630    0.09149    1.000
    P16      P        0.98810    0.14240    0.42270    1.000
    P17      P        0.05800    0.11830    0.18360    1.000
    P18      P        0.81560    0.34960    0.16920    1.000
    F11      F        0.08050    0.32990    0.30880    1.000
    F12      F        0.99730    0.41030    0.19510    1.000
    O61      O        0.93440    0.21120    0.36590    1.000
    O62      O        0.05300    0.97340    0.16050    1.000
    O63      O        0.84790    0.31190    0.24400    1.000
    O64      O        0.98500    0.15420    0.23190    1.000
    O65      O        0.08020    0.13120    0.40020    1.000
    O66      O        0.14020    0.14230    0.22410    1.000
    O67      O        0.79100    0.49760    0.16650    1.000
    O68      O        0.73740    0.26890    0.15110    1.000
    O69      O        0.05790    0.20230    0.11360    1.000
    O70      O        0.87880    0.31570    0.10870    1.000
    O71      O        0.98020    0.21810    0.49370    1.000
    O72      O        0.95420    0.00040    0.43220    1.000
    Ga19     Ga       0.46002    0.18253    0.71794    1.000
    Ga20     Ga       0.64939    0.33620    0.67667    1.000
    Ga21     Ga       0.48953    0.15370    0.90851    1.000
    P19      P        0.48810    0.35760    0.57730    1.000
    P20      P        0.55800    0.38170    0.81640    1.000
    P21      P        0.31560    0.15040    0.83080    1.000
    F13      F        0.58050    0.17010    0.69120    1.000
    F14      F        0.49730    0.08970    0.80490    1.000
    O73      O        0.43440    0.28880    0.63410    1.000
    O74      O        0.55300    0.52660    0.83950    1.000
    O75      O        0.34790    0.18810    0.75600    1.000
    O76      O        0.48500    0.34580    0.76810    1.000
    O77      O        0.58020    0.36880    0.59980    1.000
    O78      O        0.64020    0.35770    0.77590    1.000
    O79      O        0.29100    0.00240    0.83350    1.000
    O80      O        0.23740    0.23110    0.84890    1.000
    O81      O        0.55790    0.29770    0.88640    1.000
    O82      O        0.37880    0.18430    0.89130    1.000
    O83      O        0.48020    0.28190    0.50630    1.000
    O84      O        0.45420    0.49960    0.56780    1.000
    Ga22     Ga       0.03998    0.81747    0.21794    1.000
    Ga23     Ga       0.85061    0.66380    0.17667    1.000
    Ga24     Ga       0.01047    0.84630    0.40851    1.000
    P22      P        0.01190    0.64240    0.07730    1.000
    P23      P        0.94200    0.61830    0.31640    1.000
    P24      P        0.18440    0.84960    0.33080    1.000
    F15      F        0.91950    0.82990    0.19120    1.000
    F16      F        0.00270    0.91030    0.30490    1.000
    O85      O        0.06560    0.71120    0.13410    1.000
    O86      O        0.94700    0.47340    0.33950    1.000
    O87      O        0.15210    0.81190    0.25600    1.000
    O88      O        0.01500    0.65420    0.26810    1.000
    O89      O        0.91980    0.63120    0.09980    1.000
    O90      O        0.85980    0.64230    0.27590    1.000
    O91      O        0.20900    0.99760    0.33350    1.000
    O92      O        0.26260    0.76890    0.34890    1.000
    O93      O        0.94210    0.70230    0.38640    1.000
    O94      O        0.12120    0.81570    0.39130    1.000
    O95      O        0.01980    0.71810    0.00630    1.000
    O96      O        0.04580    0.50040    0.06780    1.000
