# CIF file generated by openbabel 3.1.0, see https://openbabel.org
data_I
_chemical_name_common 'image0'
_cell_length_a 12.9224
_cell_length_b 13.3343
_cell_length_c 13.5054
_cell_angle_alpha 68.597
_cell_angle_beta 88.575
_cell_angle_gamma 79.571
_space_group_name_H-M_alt 'P 1'
_space_group_name_Hall 'P 1'
loop_
    _symmetry_equiv_pos_as_xyz
    x,y,z
loop_
    _atom_site_label
    _atom_site_type_symbol
    _atom_site_fract_x
    _atom_site_fract_y
    _atom_site_fract_z
    _atom_site_occupancy
    U1       U        0.18267    0.79878    0.38145    1.000
    U2       U        0.19062    0.29586    0.39385    1.000
    U3       U        0.50957    0.77492    0.98758    1.000
    O1       O        0.41170    0.87810    0.90330    1.000
    O2       O        0.60700    0.66820    0.07220    1.000
    O3       O        0.42850    0.78910    0.14590    1.000
    O4       O        0.32660    0.82660    0.26460    1.000
    O5       O        0.40890    0.10770    0.94740    1.000
    O6       O        0.36160    0.09730    0.10610    1.000
    O7       O        0.07390    0.87360    0.48800    1.000
    O8       O        0.91130    0.83870    0.51490    1.000
    O9       O        0.75180    0.86510    0.64740    1.000
    O10      O        0.76610    0.03020    0.63760    1.000
    O11      O        0.03990    0.85790    0.95850    1.000
    O12      O        0.43600    0.26870    0.16400    1.000
    O13      O        0.33630    0.31560    0.28070    1.000
    O14      O        0.39860    0.65500    0.00640    1.000
    O15      O        0.44710    0.50170    0.14650    1.000
    O16      O        0.07830    0.37250    0.49920    1.000
    O17      O        0.91910    0.33540    0.53260    1.000
    O18      O        0.76540    0.35220    0.67710    1.000
    O19      O        0.77150    0.52510    0.64250    1.000
    O20      O        0.05260    0.39050    0.95910    1.000
    C1       C        0.34460    0.83880    0.16920    1.000
    C2       C        0.26380    0.90700    0.08270    1.000
    C3       C        0.27010    0.01300    0.01710    1.000
    C4       C        0.19500    0.06800    0.93220    1.000
    H1       H        0.19630    0.14050    0.88950    1.000
    C5       C        0.12140    0.01780    0.91160    1.000
    H2       H        0.07340    0.05430    0.85410    1.000
    C6       C        0.11840    0.91180    0.97680    1.000
    C7       C        0.18780    0.85570    0.06240    1.000
    H3       H        0.18380    0.78430    0.10610    1.000
    C8       C        0.02920    0.86390    0.85380    1.000
    C9       C        0.93020    0.88910    0.81040    1.000
    H4       H        0.87290    0.90450    0.84880    1.000
    C10      C        0.91450    0.89170    0.70610    1.000
    C11      C        0.00330    0.86610    0.65210    1.000
    C12      C        0.10290    0.84660    0.69770    1.000
    H5       H        0.16110    0.83570    0.65850    1.000
    C13      C        0.11870    0.84280    0.79860    1.000
    H6       H        0.18610    0.82690    0.82950    1.000
    C14      C        0.80580    0.93140    0.65990    1.000
    C15      C        0.99350    0.85970    0.54380    1.000
    C16      C        0.35880    0.32810    0.18710    1.000
    C17      C        0.28460    0.40670    0.09660    1.000
    C18      C        0.30410    0.51160    0.03630    1.000
    C19      C        0.23480    0.57590    0.94760    1.000
    H7       H        0.24520    0.64620    0.90680    1.000
    C20      C        0.15260    0.53760    0.91980    1.000
    H8       H        0.10780    0.58130    0.86120    1.000
    C21      C        0.13740    0.43290    0.98050    1.000
    C22      C        0.20350    0.36710    0.06910    1.000
    H9       H        0.19260    0.29680    0.10920    1.000
    C23      C        0.38920    0.55770    0.06680    1.000
    C24      C        0.04210    0.38770    0.85750    1.000
    C25      C        0.94330    0.40420    0.81720    1.000
    H10      H        0.88620    0.42000    0.85580    1.000
    C26      C        0.92580    0.39760    0.71860    1.000
    C27      C        0.01300    0.37330    0.66180    1.000
    C28      C        0.11360    0.35870    0.70400    1.000
    H11      H        0.17110    0.34390    0.66540    1.000
    C29      C        0.13140    0.36550    0.80290    1.000
    H12      H        0.19910    0.35580    0.83090    1.000
    C30      C        0.00320    0.36010    0.55720    1.000
    C31      C        0.81580    0.42700    0.67420    1.000
    C32      C        0.35350    0.07430    0.02800    1.000
    U4       U        0.49420    0.72810    0.00830    1.000
    U5       U        0.81733    0.20122    0.61855    1.000
    U6       U        0.80938    0.70414    0.60615    1.000
    U7       U        0.49043    0.22508    0.01242    1.000
    O21      O        0.58830    0.12190    0.09670    1.000
    O22      O        0.39300    0.33180    0.92780    1.000
    O23      O        0.57150    0.21090    0.85410    1.000
    O24      O        0.67340    0.17340    0.73540    1.000
    O25      O        0.59110    0.89230    0.05260    1.000
    O26      O        0.63840    0.90270    0.89390    1.000
    O27      O        0.92610    0.12640    0.51200    1.000
    O28      O        0.08870    0.16130    0.48510    1.000
    O29      O        0.24820    0.13490    0.35260    1.000
    O30      O        0.23390    0.96980    0.36240    1.000
    O31      O        0.96010    0.14210    0.04150    1.000
    O32      O        0.56400    0.73130    0.83600    1.000
    O33      O        0.66370    0.68440    0.71930    1.000
    O34      O        0.60140    0.34500    0.99360    1.000
    O35      O        0.55290    0.49830    0.85350    1.000
    O36      O        0.92170    0.62750    0.50080    1.000
    O37      O        0.08090    0.66460    0.46740    1.000
    O38      O        0.23460    0.64780    0.32290    1.000
    O39      O        0.22850    0.47490    0.35750    1.000
    O40      O        0.94740    0.60950    0.04090    1.000
    C33      C        0.65540    0.16120    0.83080    1.000
    C34      C        0.73620    0.09300    0.91730    1.000
    C35      C        0.72990    0.98700    0.98290    1.000
    C36      C        0.80500    0.93200    0.06780    1.000
    H13      H        0.80370    0.85950    0.11050    1.000
    C37      C        0.87860    0.98220    0.08840    1.000
    H14      H        0.92660    0.94570    0.14590    1.000
    C38      C        0.88160    0.08820    0.02320    1.000
    C39      C        0.81220    0.14430    0.93760    1.000
    H15      H        0.81620    0.21570    0.89390    1.000
    C40      C        0.97080    0.13610    0.14620    1.000
    C41      C        0.06980    0.11090    0.18960    1.000
    H16      H        0.12710    0.09550    0.15120    1.000
    C42      C        0.08550    0.10830    0.29390    1.000
    C43      C        0.99670    0.13390    0.34790    1.000
    C44      C        0.89710    0.15340    0.30230    1.000
    H17      H        0.83890    0.16430    0.34150    1.000
    C45      C        0.88130    0.15720    0.20140    1.000
    H18      H        0.81390    0.17310    0.17050    1.000
    C46      C        0.19420    0.06860    0.34010    1.000
    C47      C        0.00650    0.14030    0.45620    1.000
    C48      C        0.64120    0.67190    0.81290    1.000
    C49      C        0.71540    0.59330    0.90340    1.000
    C50      C        0.69590    0.48840    0.96370    1.000
    C51      C        0.76520    0.42410    0.05240    1.000
    H19      H        0.75480    0.35380    0.09320    1.000
    C52      C        0.84740    0.46240    0.08020    1.000
    H20      H        0.89220    0.41870    0.13880    1.000
    C53      C        0.86260    0.56710    0.01950    1.000
    C54      C        0.79650    0.63290    0.93090    1.000
    H21      H        0.80740    0.70320    0.89080    1.000
    C55      C        0.61080    0.44230    0.93320    1.000
    C56      C        0.95790    0.61230    0.14250    1.000
    C57      C        0.05670    0.59580    0.18280    1.000
    H22      H        0.11380    0.58000    0.14420    1.000
    C58      C        0.07420    0.60240    0.28140    1.000
    C59      C        0.98700    0.62670    0.33820    1.000
    C60      C        0.88640    0.64130    0.29600    1.000
    H23      H        0.82890    0.65610    0.33460    1.000
    C61      C        0.86860    0.63450    0.19710    1.000
    H24      H        0.80090    0.64420    0.16910    1.000
    C62      C        0.99680    0.63990    0.44280    1.000
    C63      C        0.18420    0.57300    0.32580    1.000
    C64      C        0.64650    0.92570    0.97200    1.000
    U8       U        0.50580    0.27190    0.99170    1.000
