# CIF file generated by openbabel 3.1.0, see https://openbabel.org
data_I
_chemical_name_common 'image0'
_cell_length_a 8.186
_cell_length_b 20.16
_cell_length_c 8.9521
_cell_angle_alpha 90
_cell_angle_beta 91.04
_cell_angle_gamma 90
_space_group_name_H-M_alt 'P 1'
_space_group_name_Hall 'P 1'
loop_
    _symmetry_equiv_pos_as_xyz
    x,y,z
loop_
    _atom_site_label
    _atom_site_type_symbol
    _atom_site_fract_x
    _atom_site_fract_y
    _atom_site_fract_z
    _atom_site_occupancy
    N1       N        0.64980    0.07245    0.88960    1.000
    N2       N        0.81970    0.07666    0.90130    1.000
    N3       N        0.72350    0.16316    0.78350    1.000
    N4       N        0.69740    0.22612    0.72340    1.000
    N5       N        0.82630    0.25718    0.72470    1.000
    N6       N        0.79780    0.32031    0.66700    1.000
    N7       N        0.86040    0.41846    0.59110    1.000
    N8       N        0.69280    0.41152    0.57540    1.000
    N9       N        0.33990    0.99677    0.80440    1.000
    N10      N        0.41650    0.99665    0.66640    1.000
    N11      N        0.15280    0.99861    0.63080    1.000
    N12      N        0.99670    0.00008    0.56940    1.000
    C1       C        0.59610    0.12419    0.81930    1.000
    H1       H        0.48690    0.13320    0.79700    1.000
    C2       C        0.86030    0.13204    0.83830    1.000
    H2       H        0.96630    0.14820    0.83150    1.000
    C3       C        0.91910    0.36429    0.64760    1.000
    H3       H        0.02860    0.35690    0.67130    1.000
    C4       C        0.65820    0.35184    0.62180    1.000
    H4       H        0.55390    0.33360    0.62370    1.000
    C5       C        0.18240    0.99799    0.78060    1.000
    H5       H        0.10340    0.99840    0.85400    1.000
    C6       C        0.30230    0.99785    0.56500    1.000
    H6       H        0.31920    0.99810    0.46260    1.000
    N13      N        0.85020    0.57245    0.61040    1.000
    N14      N        0.68030    0.57666    0.59870    1.000
    N15      N        0.77650    0.66316    0.71650    1.000
    N16      N        0.80260    0.72612    0.77660    1.000
    N17      N        0.67370    0.75718    0.77530    1.000
    N18      N        0.70220    0.82031    0.83300    1.000
    N19      N        0.63960    0.91846    0.90890    1.000
    N20      N        0.80720    0.91152    0.92460    1.000
    N21      N        0.16010    0.49677    0.69560    1.000
    N22      N        0.08350    0.49665    0.83360    1.000
    N23      N        0.34720    0.49861    0.86920    1.000
    N24      N        0.50330    0.50008    0.93060    1.000
    C7       C        0.90390    0.62419    0.68070    1.000
    H7       H        0.01310    0.63320    0.70300    1.000
    C8       C        0.63970    0.63204    0.66170    1.000
    H8       H        0.53370    0.64820    0.66850    1.000
    C9       C        0.58090    0.86429    0.85240    1.000
    H9       H        0.47140    0.85690    0.82870    1.000
    C10      C        0.84180    0.85184    0.87820    1.000
    H10      H        0.94610    0.83360    0.87630    1.000
    C11      C        0.31760    0.49799    0.71940    1.000
    H11      H        0.39660    0.49840    0.64600    1.000
    C12      C        0.19770    0.49785    0.93500    1.000
    H12      H        0.18080    0.49810    0.03740    1.000
    N25      N        0.35020    0.92755    0.11040    1.000
    N26      N        0.18030    0.92334    0.09870    1.000
    N27      N        0.27650    0.83684    0.21650    1.000
    N28      N        0.30260    0.77388    0.27660    1.000
    N29      N        0.17370    0.74282    0.27530    1.000
    N30      N        0.20220    0.67969    0.33300    1.000
    N31      N        0.13960    0.58154    0.40890    1.000
    N32      N        0.30720    0.58848    0.42460    1.000
    N33      N        0.66010    0.00323    0.19560    1.000
    N34      N        0.58350    0.00335    0.33360    1.000
    N35      N        0.84720    0.00139    0.36920    1.000
    N36      N        0.00330    0.99992    0.43060    1.000
    C13      C        0.40390    0.87581    0.18070    1.000
    H13      H        0.51310    0.86680    0.20300    1.000
    C14      C        0.13970    0.86796    0.16170    1.000
    H14      H        0.03370    0.85180    0.16850    1.000
    C15      C        0.08090    0.63571    0.35240    1.000
    H15      H        0.97140    0.64310    0.32870    1.000
    C16      C        0.34180    0.64816    0.37820    1.000
    H16      H        0.44610    0.66640    0.37630    1.000
    C17      C        0.81760    0.00201    0.21940    1.000
    H17      H        0.89660    0.00160    0.14600    1.000
    C18      C        0.69770    0.00215    0.43500    1.000
    H18      H        0.68080    0.00190    0.53740    1.000
    N37      N        0.14980    0.42755    0.38960    1.000
    N38      N        0.31970    0.42334    0.40130    1.000
    N39      N        0.22350    0.33684    0.28350    1.000
    N40      N        0.19740    0.27388    0.22340    1.000
    N41      N        0.32630    0.24282    0.22470    1.000
    N42      N        0.29780    0.17969    0.16700    1.000
    N43      N        0.36040    0.08154    0.09110    1.000
    N44      N        0.19280    0.08848    0.07540    1.000
    N45      N        0.83990    0.50323    0.30440    1.000
    N46      N        0.91650    0.50335    0.16640    1.000
    N47      N        0.65280    0.50139    0.13080    1.000
    N48      N        0.49670    0.49992    0.06940    1.000
    C19      C        0.09610    0.37581    0.31930    1.000
    H19      H        0.98690    0.36680    0.29700    1.000
    C20      C        0.36030    0.36796    0.33830    1.000
    H20      H        0.46630    0.35180    0.33150    1.000
    C21      C        0.41910    0.13571    0.14760    1.000
    H21      H        0.52860    0.14310    0.17130    1.000
    C22      C        0.15820    0.14816    0.12180    1.000
    H22      H        0.05390    0.16640    0.12370    1.000
    C23      C        0.68240    0.50201    0.28060    1.000
    H23      H        0.60340    0.50160    0.35400    1.000
    C24      C        0.80230    0.50215    0.06500    1.000
    H24      H        0.81920    0.50190    0.96260    1.000
    Zn1      Zn       0.50000    0.00000    0.00000    1.000
    Zn2      Zn       0.00000    0.50000    0.50000    1.000
