# CIF file generated by openbabel 3.1.0, see https://openbabel.org
data_I
_chemical_name_common 'image0'
_cell_length_a 23.5849
_cell_length_b 15.7031
_cell_length_c 16.1371
_cell_angle_alpha 90
_cell_angle_beta 124.274
_cell_angle_gamma 90
_space_group_name_H-M_alt 'P 1'
_space_group_name_Hall 'P 1'
loop_
    _symmetry_equiv_pos_as_xyz
    x,y,z
loop_
    _atom_site_label
    _atom_site_type_symbol
    _atom_site_fract_x
    _atom_site_fract_y
    _atom_site_fract_z
    _atom_site_occupancy
    Eu1      Eu       0.81039    0.32798    0.62190    1.000
    C1       C        0.13010    0.96190    0.32490    1.000
    C2       C        0.14180    0.04440    0.36140    1.000
    H1       H        0.17870    0.05560    0.42860    1.000
    C3       C        0.10020    0.11080    0.30080    1.000
    C4       C        0.04600    0.09480    0.20190    1.000
    C5       C        0.03290    0.01240    0.16680    1.000
    H2       H        0.99490    0.00090    0.10040    1.000
    C6       C        0.07410    0.94660    0.22660    1.000
    H3       H        0.06460    0.89020    0.20090    1.000
    C7       C        0.01880    0.19110    0.07370    1.000
    C8       C        0.96590    0.22790    0.98610    1.000
    H4       H        0.92100    0.23020    0.97200    1.000
    C9       C        0.97880    0.26160    0.91840    1.000
    C10      C        0.04480    0.25870    0.93940    1.000
    H5       H        0.05350    0.28030    0.89260    1.000
    C11      C        0.09770    0.22370    0.02970    1.000
    C12      C        0.08450    0.18880    0.09590    1.000
    H6       H        0.12060    0.16330    0.15650    1.000
    C13      C        0.17730    0.89080    0.38850    1.000
    C14      C        0.92030    0.29740    0.82070    1.000
    C15      C        0.17070    0.22300    0.05920    1.000
    N1       N        0.11660    0.19610    0.34380    1.000
    O1       O        0.16920    0.82170    0.34460    1.000
    O2       O        0.22140    0.90680    0.47950    1.000
    O3       O        0.15220    0.20220    0.43520    1.000
    O4       O        0.09400    0.25710    0.28780    1.000
    O5       O        0.21398    0.18230    0.13570    1.000
    O6       O        0.18614    0.26190    0.00620    1.000
    O7       O        0.93167    0.32240    0.75670    1.000
    O8       O        0.86179    0.30020    0.80430    1.000
    O9       O        0.00255    0.15830    0.13780    1.000
    Eu2      Eu       0.31039    0.82798    0.62190    1.000
    C16      C        0.63010    0.46190    0.32490    1.000
    C17      C        0.64180    0.54440    0.36140    1.000
    H7       H        0.67870    0.55560    0.42860    1.000
    C18      C        0.60020    0.61080    0.30080    1.000
    C19      C        0.54600    0.59480    0.20190    1.000
    C20      C        0.53290    0.51240    0.16680    1.000
    H8       H        0.49490    0.50090    0.10040    1.000
    C21      C        0.57410    0.44660    0.22660    1.000
    H9       H        0.56460    0.39020    0.20090    1.000
    C22      C        0.51880    0.69110    0.07370    1.000
    C23      C        0.46590    0.72790    0.98610    1.000
    H10      H        0.42100    0.73020    0.97200    1.000
    C24      C        0.47880    0.76160    0.91840    1.000
    C25      C        0.54480    0.75870    0.93940    1.000
    H11      H        0.55350    0.78030    0.89260    1.000
    C26      C        0.59770    0.72370    0.02970    1.000
    C27      C        0.58450    0.68880    0.09590    1.000
    H12      H        0.62060    0.66330    0.15650    1.000
    C28      C        0.67730    0.39080    0.38850    1.000
    C29      C        0.42030    0.79740    0.82070    1.000
    C30      C        0.67070    0.72300    0.05920    1.000
    N2       N        0.61660    0.69610    0.34380    1.000
    O10      O        0.66920    0.32170    0.34460    1.000
    O11      O        0.72140    0.40680    0.47950    1.000
    O12      O        0.65220    0.70220    0.43520    1.000
    O13      O        0.59400    0.75710    0.28780    1.000
    O14      O        0.71398    0.68230    0.13570    1.000
    O15      O        0.68614    0.76190    0.00620    1.000
    O16      O        0.43167    0.82240    0.75670    1.000
    O17      O        0.36179    0.80020    0.80430    1.000
    O18      O        0.50255    0.65830    0.13780    1.000
    Eu3      Eu       0.18961    0.32798    0.87810    1.000
    C31      C        0.86990    0.96190    0.17510    1.000
    C32      C        0.85820    0.04440    0.13860    1.000
    H13      H        0.82130    0.05560    0.07140    1.000
    C33      C        0.89980    0.11080    0.19920    1.000
    C34      C        0.95400    0.09480    0.29810    1.000
    C35      C        0.96710    0.01240    0.33320    1.000
    H14      H        0.00510    0.00090    0.39960    1.000
    C36      C        0.92590    0.94660    0.27340    1.000
    H15      H        0.93540    0.89020    0.29910    1.000
    C37      C        0.98120    0.19110    0.42630    1.000
    C38      C        0.03410    0.22790    0.51390    1.000
    H16      H        0.07900    0.23020    0.52800    1.000
    C39      C        0.02120    0.26160    0.58160    1.000
    C40      C        0.95520    0.25870    0.56060    1.000
    H17      H        0.94650    0.28030    0.60740    1.000
    C41      C        0.90230    0.22370    0.47030    1.000
    C42      C        0.91550    0.18880    0.40410    1.000
    H18      H        0.87940    0.16330    0.34350    1.000
    C43      C        0.82270    0.89080    0.11150    1.000
    C44      C        0.07970    0.29740    0.67930    1.000
    C45      C        0.82930    0.22300    0.44080    1.000
    N3       N        0.88340    0.19610    0.15620    1.000
    O19      O        0.83080    0.82170    0.15540    1.000
    O20      O        0.77860    0.90680    0.02050    1.000
    O21      O        0.84780    0.20220    0.06480    1.000
    O22      O        0.90600    0.25710    0.21220    1.000
    O23      O        0.78602    0.18230    0.36430    1.000
    O24      O        0.81386    0.26190    0.49380    1.000
    O25      O        0.06833    0.32240    0.74330    1.000
    O26      O        0.13821    0.30020    0.69570    1.000
    O27      O        0.99745    0.15830    0.36220    1.000
    Eu4      Eu       0.68961    0.82798    0.87810    1.000
    C46      C        0.36990    0.46190    0.17510    1.000
    C47      C        0.35820    0.54440    0.13860    1.000
    H19      H        0.32130    0.55560    0.07140    1.000
    C48      C        0.39980    0.61080    0.19920    1.000
    C49      C        0.45400    0.59480    0.29810    1.000
    C50      C        0.46710    0.51240    0.33320    1.000
    H20      H        0.50510    0.50090    0.39960    1.000
    C51      C        0.42590    0.44660    0.27340    1.000
    H21      H        0.43540    0.39020    0.29910    1.000
    C52      C        0.48120    0.69110    0.42630    1.000
    C53      C        0.53410    0.72790    0.51390    1.000
    H22      H        0.57900    0.73020    0.52800    1.000
    C54      C        0.52120    0.76160    0.58160    1.000
    C55      C        0.45520    0.75870    0.56060    1.000
    H23      H        0.44650    0.78030    0.60740    1.000
    C56      C        0.40230    0.72370    0.47030    1.000
    C57      C        0.41550    0.68880    0.40410    1.000
    H24      H        0.37940    0.66330    0.34350    1.000
    C58      C        0.32270    0.39080    0.11150    1.000
    C59      C        0.57970    0.79740    0.67930    1.000
    C60      C        0.32930    0.72300    0.44080    1.000
    N4       N        0.38340    0.69610    0.15620    1.000
    O28      O        0.33080    0.32170    0.15540    1.000
    O29      O        0.27860    0.40680    0.02050    1.000
    O30      O        0.34780    0.70220    0.06480    1.000
    O31      O        0.40600    0.75710    0.21220    1.000
    O32      O        0.28602    0.68230    0.36430    1.000
    O33      O        0.31386    0.76190    0.49380    1.000
    O34      O        0.56833    0.82240    0.74330    1.000
    O35      O        0.63821    0.80020    0.69570    1.000
    O36      O        0.49745    0.65830    0.36220    1.000
    Eu5      Eu       0.18961    0.67202    0.37810    1.000
    C61      C        0.86990    0.03810    0.67510    1.000
    C62      C        0.85820    0.95560    0.63860    1.000
    H25      H        0.82130    0.94440    0.57140    1.000
    C63      C        0.89980    0.88920    0.69920    1.000
    C64      C        0.95400    0.90520    0.79810    1.000
    C65      C        0.96710    0.98760    0.83320    1.000
    H26      H        0.00510    0.99910    0.89960    1.000
    C66      C        0.92590    0.05340    0.77340    1.000
    H27      H        0.93540    0.10980    0.79910    1.000
    C67      C        0.98120    0.80890    0.92630    1.000
    C68      C        0.03410    0.77210    0.01390    1.000
    H28      H        0.07900    0.76980    0.02800    1.000
    C69      C        0.02120    0.73840    0.08160    1.000
    C70      C        0.95520    0.74130    0.06060    1.000
    H29      H        0.94650    0.71970    0.10740    1.000
    C71      C        0.90230    0.77630    0.97030    1.000
    C72      C        0.91550    0.81120    0.90410    1.000
    H30      H        0.87940    0.83670    0.84350    1.000
    C73      C        0.82270    0.10920    0.61150    1.000
    C74      C        0.07970    0.70260    0.17930    1.000
    C75      C        0.82930    0.77700    0.94080    1.000
    N5       N        0.88340    0.80390    0.65620    1.000
    O37      O        0.83080    0.17830    0.65540    1.000
    O38      O        0.77860    0.09320    0.52050    1.000
    O39      O        0.84780    0.79780    0.56480    1.000
    O40      O        0.90600    0.74290    0.71220    1.000
    O41      O        0.78602    0.81770    0.86430    1.000
    O42      O        0.81386    0.73810    0.99380    1.000
    O43      O        0.06833    0.67760    0.24330    1.000
    O44      O        0.13821    0.69980    0.19570    1.000
    O45      O        0.99745    0.84170    0.86220    1.000
    Eu6      Eu       0.68961    0.17202    0.37810    1.000
    C76      C        0.36990    0.53810    0.67510    1.000
    C77      C        0.35820    0.45560    0.63860    1.000
    H31      H        0.32130    0.44440    0.57140    1.000
    C78      C        0.39980    0.38920    0.69920    1.000
    C79      C        0.45400    0.40520    0.79810    1.000
    C80      C        0.46710    0.48760    0.83320    1.000
    H32      H        0.50510    0.49910    0.89960    1.000
    C81      C        0.42590    0.55340    0.77340    1.000
    H33      H        0.43540    0.60980    0.79910    1.000
    C82      C        0.48120    0.30890    0.92630    1.000
    C83      C        0.53410    0.27210    0.01390    1.000
    H34      H        0.57900    0.26980    0.02800    1.000
    C84      C        0.52120    0.23840    0.08160    1.000
    C85      C        0.45520    0.24130    0.06060    1.000
    H35      H        0.44650    0.21970    0.10740    1.000
    C86      C        0.40230    0.27630    0.97030    1.000
    C87      C        0.41550    0.31120    0.90410    1.000
    H36      H        0.37940    0.33670    0.84350    1.000
    C88      C        0.32270    0.60920    0.61150    1.000
    C89      C        0.57970    0.20260    0.17930    1.000
    C90      C        0.32930    0.27700    0.94080    1.000
    N6       N        0.38340    0.30390    0.65620    1.000
    O46      O        0.33080    0.67830    0.65540    1.000
    O47      O        0.27860    0.59320    0.52050    1.000
    O48      O        0.34780    0.29780    0.56480    1.000
    O49      O        0.40600    0.24290    0.71220    1.000
    O50      O        0.28602    0.31770    0.86430    1.000
    O51      O        0.31386    0.23810    0.99380    1.000
    O52      O        0.56833    0.17760    0.24330    1.000
    O53      O        0.63821    0.19980    0.19570    1.000
    O54      O        0.49745    0.34170    0.86220    1.000
    Eu7      Eu       0.81039    0.67202    0.12190    1.000
    C91      C        0.13010    0.03810    0.82490    1.000
    C92      C        0.14180    0.95560    0.86140    1.000
    H37      H        0.17870    0.94440    0.92860    1.000
    C93      C        0.10020    0.88920    0.80080    1.000
    C94      C        0.04600    0.90520    0.70190    1.000
    C95      C        0.03290    0.98760    0.66680    1.000
    H38      H        0.99490    0.99910    0.60040    1.000
    C96      C        0.07410    0.05340    0.72660    1.000
    H39      H        0.06460    0.10980    0.70090    1.000
    C97      C        0.01880    0.80890    0.57370    1.000
    C98      C        0.96590    0.77210    0.48610    1.000
    H40      H        0.92100    0.76980    0.47200    1.000
    C99      C        0.97880    0.73840    0.41840    1.000
    C100     C        0.04480    0.74130    0.43940    1.000
    H41      H        0.05350    0.71970    0.39260    1.000
    C101     C        0.09770    0.77630    0.52970    1.000
    C102     C        0.08450    0.81120    0.59590    1.000
    H42      H        0.12060    0.83670    0.65650    1.000
    C103     C        0.17730    0.10920    0.88850    1.000
    C104     C        0.92030    0.70260    0.32070    1.000
    C105     C        0.17070    0.77700    0.55920    1.000
    N7       N        0.11660    0.80390    0.84380    1.000
    O55      O        0.16920    0.17830    0.84460    1.000
    O56      O        0.22140    0.09320    0.97950    1.000
    O57      O        0.15220    0.79780    0.93520    1.000
    O58      O        0.09400    0.74290    0.78780    1.000
    O59      O        0.21398    0.81770    0.63570    1.000
    O60      O        0.18614    0.73810    0.50620    1.000
    O61      O        0.93167    0.67760    0.25670    1.000
    O62      O        0.86179    0.69980    0.30430    1.000
    O63      O        0.00255    0.84170    0.63780    1.000
    Eu8      Eu       0.31039    0.17202    0.12190    1.000
    C106     C        0.63010    0.53810    0.82490    1.000
    C107     C        0.64180    0.45560    0.86140    1.000
    H43      H        0.67870    0.44440    0.92860    1.000
    C108     C        0.60020    0.38920    0.80080    1.000
    C109     C        0.54600    0.40520    0.70190    1.000
    C110     C        0.53290    0.48760    0.66680    1.000
    H44      H        0.49490    0.49910    0.60040    1.000
    C111     C        0.57410    0.55340    0.72660    1.000
    H45      H        0.56460    0.60980    0.70090    1.000
    C112     C        0.51880    0.30890    0.57370    1.000
    C113     C        0.46590    0.27210    0.48610    1.000
    H46      H        0.42100    0.26980    0.47200    1.000
    C114     C        0.47880    0.23840    0.41840    1.000
    C115     C        0.54480    0.24130    0.43940    1.000
    H47      H        0.55350    0.21970    0.39260    1.000
    C116     C        0.59770    0.27630    0.52970    1.000
    C117     C        0.58450    0.31120    0.59590    1.000
    H48      H        0.62060    0.33670    0.65650    1.000
    C118     C        0.67730    0.60920    0.88850    1.000
    C119     C        0.42030    0.20260    0.32070    1.000
    C120     C        0.67070    0.27700    0.55920    1.000
    N8       N        0.61660    0.30390    0.84380    1.000
    O64      O        0.66920    0.67830    0.84460    1.000
    O65      O        0.72140    0.59320    0.97950    1.000
    O66      O        0.65220    0.29780    0.93520    1.000
    O67      O        0.59400    0.24290    0.78780    1.000
    O68      O        0.71398    0.31770    0.63570    1.000
    O69      O        0.68614    0.23810    0.50620    1.000
    O70      O        0.43167    0.17760    0.25670    1.000
    O71      O        0.36179    0.19980    0.30430    1.000
    O72      O        0.50255    0.34170    0.63780    1.000
