# CIF file generated by openbabel 3.1.0, see https://openbabel.org
data_I
_chemical_name_common 'image0'
_cell_length_a 13.1897
_cell_length_b 16.438
_cell_length_c 15.4725
_cell_angle_alpha 90
_cell_angle_beta 102.345
_cell_angle_gamma 90
_space_group_name_H-M_alt 'P 1'
_space_group_name_Hall 'P 1'
loop_
    _symmetry_equiv_pos_as_xyz
    x,y,z
loop_
    _atom_site_label
    _atom_site_type_symbol
    _atom_site_fract_x
    _atom_site_fract_y
    _atom_site_fract_z
    _atom_site_occupancy
    V1       V        0.34037    0.83342    0.85190    1.000
    V2       V        0.78198    0.99580    0.12255    1.000
    Zn1      Zn       0.49027    0.80492    0.07205    1.000
    V3       V        0.72560    0.83974    0.24685    1.000
    C1       C        0.37490    0.07680    0.40940    1.000
    H1       H        0.36530    0.01870    0.41520    1.000
    H2       H        0.31440    0.10400    0.42190    1.000
    C2       C        0.09790    0.13540    0.47290    1.000
    H3       H        0.14680    0.16450    0.51340    1.000
    C3       C        0.28810    0.79540    0.13240    1.000
    H4       H        0.26460    0.78630    0.07210    1.000
    C4       C        0.42850    0.32360    0.53240    1.000
    H5       H        0.38920    0.35200    0.56570    1.000
    C5       C        0.11300    0.05320    0.46420    1.000
    H6       H        0.17110    0.02810    0.49850    1.000
    C6       C        0.94770    0.13150    0.36780    1.000
    H7       H        0.89060    0.15800    0.33380    1.000
    C7       C        0.17030    0.81460    0.33270    1.000
    H8       H        0.20150    0.79580    0.39180    1.000
    H9       H        0.11020    0.78100    0.30950    1.000
    C8       C        0.95750    0.04970    0.35610    1.000
    H10      H        0.90710    0.02200    0.31540    1.000
    C9       C        0.13770    0.90400    0.33540    1.000
    H11      H        0.19890    0.93670    0.35790    1.000
    H12      H        0.10840    0.92210    0.27560    1.000
    C10      C        0.11020    0.07190    0.18090    1.000
    H13      H        0.04400    0.09100    0.18170    1.000
    C11      C        0.42220    0.24000    0.53050    1.000
    H14      H        0.37830    0.21340    0.56100    1.000
    C12      C        0.21650    0.79740    0.18400    1.000
    H15      H        0.14650    0.79100    0.15840    1.000
    C13      C        0.54600    0.32340    0.44290    1.000
    H16      H        0.58800    0.35160    0.41190    1.000
    C14      C        0.41960    0.81820    0.24990    1.000
    H17      H        0.48990    0.82640    0.27350    1.000
    C15      C        0.30140    0.01590    0.18090    1.000
    H18      H        0.36650    0.99500    0.17900    1.000
    C16      C        0.38290    0.09560    0.31500    1.000
    H19      H        0.39150    0.15380    0.30940    1.000
    H20      H        0.44450    0.06940    0.30330    1.000
    C17      C        0.21660    0.99340    0.11780    1.000
    H21      H        0.22610    0.95650    0.07460    1.000
    C18      C        0.19050    0.09660    0.24700    1.000
    H22      H        0.17880    0.13130    0.29130    1.000
    C19      C        0.35240    0.81980    0.30600    1.000
    H23      H        0.37760    0.82820    0.36620    1.000
    C20      C        0.47320    0.10420    0.47870    1.000
    H24      H        0.53470    0.08180    0.46280    1.000
    H25      H        0.46940    0.08330    0.53650    1.000
    C21      C        0.54580    0.23900    0.43980    1.000
    H26      H        0.58870    0.21180    0.40890    1.000
    C22      C        0.05900    0.91830    0.39260    1.000
    H27      H        0.99370    0.89270    0.36520    1.000
    H28      H        0.08360    0.89340    0.45010    1.000
    N1       N        0.38940    0.80550    0.16280    1.000
    N2       N        0.12110    0.02130    0.11470    1.000
    C23      C        0.48160    0.19510    0.48290    1.000
    N3       N        0.48830    0.36630    0.48890    1.000
    C24      C        0.29100    0.06880    0.24670    1.000
    C25      C        0.24740    0.80890    0.27380    1.000
    N4       N        0.01600    0.17550    0.42560    1.000
    C26      C        0.04150    0.00760    0.40430    1.000
    O1       O        0.36610    0.80805    0.95800    1.000
    O2       O        0.62320    0.81380    0.17060    1.000
    O3       O        0.30370    0.74810    0.78160    1.000
    O4       O        0.88700    0.00119    0.07950    1.000
    O5       O        0.79870    0.91664    0.20280    1.000
    O6       O        0.23710    0.90788    0.83010    1.000
    V4       V        0.15963    0.33342    0.64810    1.000
    V5       V        0.71802    0.49580    0.37745    1.000
    Zn2      Zn       0.00973    0.30492    0.42795    1.000
    V6       V        0.77440    0.33974    0.25315    1.000
    C27      C        0.12510    0.57680    0.09060    1.000
    H29      H        0.13470    0.51870    0.08480    1.000
    H30      H        0.18560    0.60400    0.07810    1.000
    C28      C        0.40210    0.63540    0.02710    1.000
    H31      H        0.35320    0.66450    0.98660    1.000
    C29      C        0.21190    0.29540    0.36760    1.000
    H32      H        0.23540    0.28630    0.42790    1.000
    C30      C        0.07150    0.82360    0.96760    1.000
    H33      H        0.11080    0.85200    0.93430    1.000
    C31      C        0.38700    0.55320    0.03580    1.000
    H34      H        0.32890    0.52810    0.00150    1.000
    C32      C        0.55230    0.63150    0.13220    1.000
    H35      H        0.60940    0.65800    0.16620    1.000
    C33      C        0.32970    0.31460    0.16730    1.000
    H36      H        0.29850    0.29580    0.10820    1.000
    H37      H        0.38980    0.28100    0.19050    1.000
    C34      C        0.54250    0.54970    0.14390    1.000
    H38      H        0.59290    0.52200    0.18460    1.000
    C35      C        0.36230    0.40400    0.16460    1.000
    H39      H        0.30110    0.43670    0.14210    1.000
    H40      H        0.39160    0.42210    0.22440    1.000
    C36      C        0.38980    0.57190    0.31910    1.000
    H41      H        0.45600    0.59100    0.31830    1.000
    C37      C        0.07780    0.74000    0.96950    1.000
    H42      H        0.12170    0.71340    0.93900    1.000
    C38      C        0.28350    0.29740    0.31600    1.000
    H43      H        0.35350    0.29100    0.34160    1.000
    C39      C        0.95400    0.82340    0.05710    1.000
    H44      H        0.91200    0.85160    0.08810    1.000
    C40      C        0.08040    0.31820    0.25010    1.000
    H45      H        0.01010    0.32640    0.22650    1.000
    C41      C        0.19860    0.51590    0.31910    1.000
    H46      H        0.13350    0.49500    0.32100    1.000
    C42      C        0.11710    0.59560    0.18500    1.000
    H47      H        0.10850    0.65380    0.19060    1.000
    H48      H        0.05550    0.56940    0.19670    1.000
    C43      C        0.28340    0.49340    0.38220    1.000
    H49      H        0.27390    0.45650    0.42540    1.000
    C44      C        0.30950    0.59660    0.25300    1.000
    H50      H        0.32120    0.63130    0.20870    1.000
    C45      C        0.14760    0.31980    0.19400    1.000
    H51      H        0.12240    0.32820    0.13380    1.000
    C46      C        0.02680    0.60420    0.02130    1.000
    H52      H        0.96530    0.58180    0.03720    1.000
    H53      H        0.03060    0.58330    0.96350    1.000
    C47      C        0.95420    0.73900    0.06020    1.000
    H54      H        0.91130    0.71180    0.09110    1.000
    C48      C        0.44100    0.41830    0.10740    1.000
    H55      H        0.50630    0.39270    0.13480    1.000
    H56      H        0.41640    0.39340    0.04990    1.000
    N5       N        0.11060    0.30550    0.33720    1.000
    N6       N        0.37890    0.52130    0.38530    1.000
    C49      C        0.01840    0.69510    0.01710    1.000
    N7       N        0.01170    0.86630    0.01110    1.000
    C50      C        0.20900    0.56880    0.25330    1.000
    C51      C        0.25260    0.30890    0.22620    1.000
    N8       N        0.48400    0.67550    0.07440    1.000
    C52      C        0.45850    0.50760    0.09570    1.000
    O7       O        0.13390    0.30805    0.54200    1.000
    O8       O        0.87680    0.31380    0.32940    1.000
    O9       O        0.19630    0.24810    0.71840    1.000
    O10      O        0.61300    0.50119    0.42050    1.000
    O11      O        0.70130    0.41664    0.29720    1.000
    O12      O        0.26290    0.40788    0.66990    1.000
    V7       V        0.65963    0.16658    0.14810    1.000
    V8       V        0.21802    0.00420    0.87745    1.000
    Zn3      Zn       0.50973    0.19508    0.92795    1.000
    V9       V        0.27440    0.16026    0.75315    1.000
    C53      C        0.62510    0.92320    0.59060    1.000
    H57      H        0.63470    0.98130    0.58480    1.000
    H58      H        0.68560    0.89600    0.57810    1.000
    C54      C        0.90210    0.86460    0.52710    1.000
    H59      H        0.85320    0.83550    0.48660    1.000
    C55      C        0.71190    0.20460    0.86760    1.000
    H60      H        0.73540    0.21370    0.92790    1.000
    C56      C        0.57150    0.67640    0.46760    1.000
    H61      H        0.61080    0.64800    0.43430    1.000
    C57      C        0.88700    0.94680    0.53580    1.000
    H62      H        0.82890    0.97190    0.50150    1.000
    C58      C        0.05230    0.86850    0.63220    1.000
    H63      H        0.10940    0.84200    0.66620    1.000
    C59      C        0.82970    0.18540    0.66730    1.000
    H64      H        0.79850    0.20420    0.60820    1.000
    H65      H        0.88980    0.21900    0.69050    1.000
    C60      C        0.04250    0.95030    0.64390    1.000
    H66      H        0.09290    0.97800    0.68460    1.000
    C61      C        0.86230    0.09600    0.66460    1.000
    H67      H        0.80110    0.06330    0.64210    1.000
    H68      H        0.89160    0.07790    0.72440    1.000
    C62      C        0.88980    0.92810    0.81910    1.000
    H69      H        0.95600    0.90900    0.81830    1.000
    C63      C        0.57780    0.76000    0.46950    1.000
    H70      H        0.62170    0.78660    0.43900    1.000
    C64      C        0.78350    0.20260    0.81600    1.000
    H71      H        0.85350    0.20900    0.84160    1.000
    C65      C        0.45400    0.67660    0.55710    1.000
    H72      H        0.41200    0.64840    0.58810    1.000
    C66      C        0.58040    0.18180    0.75010    1.000
    H73      H        0.51010    0.17360    0.72650    1.000
    C67      C        0.69860    0.98410    0.81910    1.000
    H74      H        0.63350    0.00500    0.82100    1.000
    C68      C        0.61710    0.90440    0.68500    1.000
    H75      H        0.60850    0.84620    0.69060    1.000
    H76      H        0.55550    0.93060    0.69670    1.000
    C69      C        0.78340    0.00660    0.88220    1.000
    H77      H        0.77390    0.04350    0.92540    1.000
    C70      C        0.80950    0.90340    0.75300    1.000
    H78      H        0.82120    0.86870    0.70870    1.000
    C71      C        0.64760    0.18020    0.69400    1.000
    H79      H        0.62240    0.17180    0.63380    1.000
    C72      C        0.52680    0.89580    0.52130    1.000
    H80      H        0.46530    0.91820    0.53720    1.000
    H81      H        0.53060    0.91670    0.46350    1.000
    C73      C        0.45420    0.76100    0.56020    1.000
    H82      H        0.41130    0.78820    0.59110    1.000
    C74      C        0.94100    0.08170    0.60740    1.000
    H83      H        0.00630    0.10730    0.63480    1.000
    H84      H        0.91640    0.10660    0.54990    1.000
    N9       N        0.61060    0.19450    0.83720    1.000
    N10      N        0.87890    0.97870    0.88530    1.000
    C75      C        0.51840    0.80490    0.51710    1.000
    N11      N        0.51170    0.63370    0.51110    1.000
    C76      C        0.70900    0.93120    0.75330    1.000
    C77      C        0.75260    0.19110    0.72620    1.000
    N12      N        0.98400    0.82450    0.57440    1.000
    C78      C        0.95850    0.99240    0.59570    1.000
    O13      O        0.63390    0.19195    0.04200    1.000
    O14      O        0.37680    0.18620    0.82940    1.000
    O15      O        0.69630    0.25190    0.21840    1.000
    O16      O        0.11300    0.99881    0.92050    1.000
    O17      O        0.20130    0.08336    0.79720    1.000
    O18      O        0.76290    0.09212    0.16990    1.000
    V10      V        0.84037    0.66658    0.35190    1.000
    V11      V        0.28198    0.50420    0.62255    1.000
    Zn4      Zn       0.99027    0.69508    0.57205    1.000
    V12      V        0.22560    0.66026    0.74685    1.000
    C79      C        0.87490    0.42320    0.90940    1.000
    H85      H        0.86530    0.48130    0.91520    1.000
    H86      H        0.81440    0.39600    0.92190    1.000
    C80      C        0.59790    0.36460    0.97290    1.000
    H87      H        0.64680    0.33550    0.01340    1.000
    C81      C        0.78810    0.70460    0.63240    1.000
    H88      H        0.76460    0.71370    0.57210    1.000
    C82      C        0.92850    0.17640    0.03240    1.000
    H89      H        0.88920    0.14800    0.06570    1.000
    C83      C        0.61300    0.44680    0.96420    1.000
    H90      H        0.67110    0.47190    0.99850    1.000
    C84      C        0.44770    0.36850    0.86780    1.000
    H91      H        0.39060    0.34200    0.83380    1.000
    C85      C        0.67030    0.68540    0.83270    1.000
    H92      H        0.70150    0.70420    0.89180    1.000
    H93      H        0.61020    0.71900    0.80950    1.000
    C86      C        0.45750    0.45030    0.85610    1.000
    H94      H        0.40710    0.47800    0.81540    1.000
    C87      C        0.63770    0.59600    0.83540    1.000
    H95      H        0.69890    0.56330    0.85790    1.000
    H96      H        0.60840    0.57790    0.77560    1.000
    C88      C        0.61020    0.42810    0.68090    1.000
    H97      H        0.54400    0.40900    0.68170    1.000
    C89      C        0.92220    0.26000    0.03050    1.000
    H98      H        0.87830    0.28660    0.06100    1.000
    C90      C        0.71650    0.70260    0.68400    1.000
    H99      H        0.64650    0.70900    0.65840    1.000
    C91      C        0.04600    0.17660    0.94290    1.000
    H100     H        0.08800    0.14840    0.91190    1.000
    C92      C        0.91960    0.68180    0.74990    1.000
    H101     H        0.98990    0.67360    0.77350    1.000
    C93      C        0.80140    0.48410    0.68090    1.000
    H102     H        0.86650    0.50500    0.67900    1.000
    C94      C        0.88290    0.40440    0.81500    1.000
    H103     H        0.89150    0.34620    0.80940    1.000
    H104     H        0.94450    0.43060    0.80330    1.000
    C95      C        0.71660    0.50660    0.61780    1.000
    H105     H        0.72610    0.54350    0.57460    1.000
    C96      C        0.69050    0.40340    0.74700    1.000
    H106     H        0.67880    0.36870    0.79130    1.000
    C97      C        0.85240    0.68020    0.80600    1.000
    H107     H        0.87760    0.67180    0.86620    1.000
    C98      C        0.97320    0.39580    0.97870    1.000
    H108     H        0.03470    0.41820    0.96280    1.000
    H109     H        0.96940    0.41670    0.03650    1.000
    C99      C        0.04580    0.26100    0.93980    1.000
    H110     H        0.08870    0.28820    0.90890    1.000
    C100     C        0.55900    0.58170    0.89260    1.000
    H111     H        0.49370    0.60730    0.86520    1.000
    H112     H        0.58360    0.60660    0.95010    1.000
    N13      N        0.88940    0.69450    0.66280    1.000
    N14      N        0.62110    0.47870    0.61470    1.000
    C101     C        0.98160    0.30490    0.98290    1.000
    N15      N        0.98830    0.13370    0.98890    1.000
    C102     C        0.79100    0.43120    0.74670    1.000
    C103     C        0.74740    0.69110    0.77380    1.000
    N16      N        0.51600    0.32450    0.92560    1.000
    C104     C        0.54150    0.49240    0.90430    1.000
    O19      O        0.86610    0.69195    0.45800    1.000
    O20      O        0.12320    0.68620    0.67060    1.000
    O21      O        0.80370    0.75190    0.28160    1.000
    O22      O        0.38700    0.49881    0.57950    1.000
    O23      O        0.29870    0.58336    0.70280    1.000
    O24      O        0.73710    0.59212    0.33010    1.000
    Zn5      Zn       0.00000    0.00000    0.00000    1.000
    Zn6      Zn       0.50000    0.50000    0.50000    1.000
