# CIF file generated by openbabel 3.1.0, see https://openbabel.org
data_I
_chemical_name_common 'image0'
_cell_length_a 14.3449
_cell_length_b 14.6994
_cell_length_c 20.0322
_cell_angle_alpha 108.675
_cell_angle_beta 90.123
_cell_angle_gamma 107.786
_space_group_name_H-M_alt 'P 1'
_space_group_name_Hall 'P 1'
loop_
    _symmetry_equiv_pos_as_xyz
    x,y,z
loop_
    _atom_site_label
    _atom_site_type_symbol
    _atom_site_fract_x
    _atom_site_fract_y
    _atom_site_fract_z
    _atom_site_occupancy
    Ag1      Ag       0.48425    0.40140    0.54064    1.000
    C1       C        0.39180    0.29680    0.65770    1.000
    N1       N        0.46770    0.34110    0.63200    1.000
    Ag2      Ag       0.39784    0.59425    0.14837    1.000
    C2       C        0.29310    0.25050    0.62050    1.000
    N2       N        0.54370    0.37610    0.68340    1.000
    Ag3      Ag       0.23750    0.97769    0.25604    1.000
    C3       C        0.25780    0.29230    0.57630    1.000
    H1       H        0.29710    0.35260    0.57130    1.000
    N3       N        0.51380    0.35760    0.73780    1.000
    Ag4      Ag       0.05844    0.13944    0.02894    1.000
    C4       C        0.16040    0.24150    0.53840    1.000
    H2       H        0.13850    0.26810    0.50740    1.000
    N4       N        0.41500    0.30720    0.72630    1.000
    Ag5      Ag       0.21692    0.22032    0.23094    1.000
    C5       C        0.10200    0.15800    0.54690    1.000
    H3       H        0.03770    0.12860    0.52440    1.000
    N5       N        0.31910    0.29500    0.33000    1.000
    N6       N        0.36880    0.39480    0.34460    1.000
    Ag6      Ag       0.30724    0.49465    0.29878    1.000
    C6       C        0.13800    0.11100    0.59250    1.000
    H4       H        0.09960    0.04920    0.59590    1.000
    Ag7      Ag       0.49390    0.78880    0.04415    1.000
    C7       C        0.22800    0.15840    0.62840    1.000
    H5       H        0.24910    0.13160    0.65940    1.000
    N7       N        0.42200    0.42780    0.40380    1.000
    N8       N        0.40700    0.35240    0.43240    1.000
    Ag8      Ag       0.36750    0.32670    0.83435    1.000
    C8       C        0.34560    0.27140    0.38690    1.000
    N9       N        0.04410    0.93750    0.06980    1.000
    Ag9      Ag       0.32900    0.96180    0.07780    1.000
    C9       C        0.30270    0.17250    0.39360    1.000
    C10      C        0.20800    0.10680    0.36150    1.000
    H6       H        0.17240    0.12560    0.33240    1.000
    N10      N        0.07380    0.03900    0.09890    1.000
    N11      N        0.13430    0.06900    0.15540    1.000
    C11      C        0.16720    0.01540    0.37230    1.000
    H7       H        0.10360    0.97380    0.35260    1.000
    C12      C        0.22440    0.98720    0.41380    1.000
    H8       H        0.20060    0.92250    0.41700    1.000
    N12      N        0.13830    0.98160    0.16770    1.000
    N13      N        0.27240    0.44200    0.12440    1.000
    C13      C        0.31070    0.04860    0.44850    1.000
    H9       H        0.34260    0.03090    0.48050    1.000
    N14      N        0.25720    0.40740    0.17880    1.000
    C14      C        0.35460    0.14190    0.43670    1.000
    H10      H        0.41790    0.18270    0.45760    1.000
    N15      N        0.19900    0.31170    0.15450    1.000
    C15      C        0.08350    0.90460    0.11250    1.000
    N16      N        0.18050    0.28370    0.08510    1.000
    C16      C        0.07580    0.79960    0.10310    1.000
    N17      N        0.30020    0.85790    0.19860    1.000
    C17      C        0.09600    0.74120    0.03850    1.000
    H11      H        0.11160    0.76690    0.00170    1.000
    N18      N        0.33460    0.86140    0.13670    1.000
    C18      C        0.09200    0.64000    0.03140    1.000
    H12      H        0.10800    0.60080    0.98950    1.000
    C19      C        0.06600    0.59970    0.08100    1.000
    H13      H        0.06280    0.53310    0.07370    1.000
    N19      N        0.36880    0.78340    0.10910    1.000
    N20      N        0.35360    0.72880    0.15330    1.000
    C20      C        0.04190    0.65960    0.14690    1.000
    H14      H        0.02340    0.63180    0.18240    1.000
    C21      C        0.04680    0.76030    0.15740    1.000
    H15      H        0.03100    0.79970    0.19940    1.000
    C22      C        0.22370    0.36110    0.06650    1.000
    C23      C        0.21920    0.36900    0.99460    1.000
    C24      C        0.24090    0.46000    0.98290    1.000
    H16      H        0.25840    0.52100    0.02050    1.000
    C25      C        0.23600    0.45800    0.91300    1.000
    H17      H        0.24670    0.52020    0.90580    1.000
    C26      C        0.21610    0.37400    0.85470    1.000
    H18      H        0.21180    0.37710    0.80920    1.000
    C27      C        0.20260    0.28200    0.86660    1.000
    H19      H        0.19520    0.22310    0.82830    1.000
    C28      C        0.20020    0.27760    0.93600    1.000
    H20      H        0.18640    0.21570    0.94320    1.000
    C29      C        0.31290    0.77760    0.20820    1.000
    C30      C        0.28470    0.73900    0.26610    1.000
    C31      C        0.21760    0.63940    0.24910    1.000
    H21      H        0.19830    0.59840    0.20190    1.000
    C32      C        0.18000    0.60200    0.30400    1.000
    H22      H        0.12770    0.54140    0.29350    1.000
    C33      C        0.21600    0.65000    0.36530    1.000
    H23      H        0.19450    0.62040    0.39940    1.000
    C34      C        0.29100    0.75100    0.38990    1.000
    H24      H        0.31890    0.78440    0.43670    1.000
    C35      C        0.31700    0.79100    0.33410    1.000
    H25      H        0.35870    0.85730    0.34590    1.000
    Ag10     Ag       0.40890    0.95260    0.05980    1.000
    Ag11     Ag       0.51575    0.59860    0.45936    1.000
    C36      C        0.60820    0.70320    0.34230    1.000
    N21      N        0.53230    0.65890    0.36800    1.000
    Ag12     Ag       0.60216    0.40575    0.85163    1.000
    C37      C        0.70690    0.74950    0.37950    1.000
    N22      N        0.45630    0.62390    0.31660    1.000
    Ag13     Ag       0.76250    0.02231    0.74396    1.000
    C38      C        0.74220    0.70770    0.42370    1.000
    H26      H        0.70290    0.64740    0.42870    1.000
    N23      N        0.48620    0.64240    0.26220    1.000
    Ag14     Ag       0.94156    0.86056    0.97106    1.000
    C39      C        0.83960    0.75850    0.46160    1.000
    H27      H        0.86150    0.73190    0.49260    1.000
    N24      N        0.58500    0.69280    0.27370    1.000
    Ag15     Ag       0.78308    0.77968    0.76906    1.000
    C40      C        0.89800    0.84200    0.45310    1.000
    H28      H        0.96230    0.87140    0.47560    1.000
    N25      N        0.68090    0.70500    0.67000    1.000
    N26      N        0.63120    0.60520    0.65540    1.000
    Ag16     Ag       0.69276    0.50535    0.70122    1.000
    C41      C        0.86200    0.88900    0.40750    1.000
    H29      H        0.90040    0.95080    0.40410    1.000
    Ag17     Ag       0.50610    0.21120    0.95585    1.000
    C42      C        0.77200    0.84160    0.37160    1.000
    H30      H        0.75090    0.86840    0.34060    1.000
    N27      N        0.57800    0.57220    0.59620    1.000
    N28      N        0.59300    0.64760    0.56760    1.000
    Ag18     Ag       0.63250    0.67330    0.16565    1.000
    C43      C        0.65440    0.72860    0.61310    1.000
    N29      N        0.95590    0.06250    0.93020    1.000
    Ag19     Ag       0.67100    0.03820    0.92220    1.000
    C44      C        0.69730    0.82750    0.60640    1.000
    C45      C        0.79200    0.89320    0.63850    1.000
    H31      H        0.82760    0.87440    0.66760    1.000
    N30      N        0.92620    0.96100    0.90110    1.000
    N31      N        0.86570    0.93100    0.84460    1.000
    C46      C        0.83280    0.98460    0.62770    1.000
    H32      H        0.89640    0.02620    0.64740    1.000
    C47      C        0.77560    0.01280    0.58620    1.000
    H33      H        0.79940    0.07750    0.58300    1.000
    N32      N        0.86170    0.01840    0.83230    1.000
    N33      N        0.72760    0.55800    0.87560    1.000
    C48      C        0.68930    0.95140    0.55150    1.000
    H34      H        0.65740    0.96910    0.51950    1.000
    N34      N        0.74280    0.59260    0.82120    1.000
    C49      C        0.64540    0.85810    0.56330    1.000
    H35      H        0.58210    0.81730    0.54240    1.000
    N35      N        0.80100    0.68830    0.84550    1.000
    C50      C        0.91650    0.09540    0.88750    1.000
    N36      N        0.81950    0.71630    0.91490    1.000
    C51      C        0.92420    0.20040    0.89690    1.000
    N37      N        0.69980    0.14210    0.80140    1.000
    C52      C        0.90400    0.25880    0.96150    1.000
    H36      H        0.88840    0.23310    0.99830    1.000
    N38      N        0.66540    0.13860    0.86330    1.000
    C53      C        0.90800    0.36000    0.96860    1.000
    H37      H        0.89200    0.39920    0.01050    1.000
    C54      C        0.93400    0.40030    0.91900    1.000
    H38      H        0.93720    0.46690    0.92630    1.000
    N39      N        0.63120    0.21660    0.89090    1.000
    N40      N        0.64640    0.27120    0.84670    1.000
    C55      C        0.95810    0.34040    0.85310    1.000
    H39      H        0.97660    0.36820    0.81760    1.000
    C56      C        0.95320    0.23970    0.84260    1.000
    H40      H        0.96900    0.20030    0.80060    1.000
    C57      C        0.77630    0.63890    0.93350    1.000
    C58      C        0.78080    0.63100    0.00540    1.000
    C59      C        0.75910    0.54000    0.01710    1.000
    H41      H        0.74160    0.47900    0.97950    1.000
    C60      C        0.76400    0.54200    0.08700    1.000
    H42      H        0.75330    0.47980    0.09420    1.000
    C61      C        0.78390    0.62600    0.14530    1.000
    H43      H        0.78820    0.62290    0.19080    1.000
    C62      C        0.79740    0.71800    0.13340    1.000
    H44      H        0.80480    0.77690    0.17170    1.000
    C63      C        0.79980    0.72240    0.06400    1.000
    H45      H        0.81360    0.78430    0.05680    1.000
    C64      C        0.68710    0.22240    0.79180    1.000
    C65      C        0.71530    0.26100    0.73390    1.000
    C66      C        0.78240    0.36060    0.75090    1.000
    H46      H        0.80170    0.40160    0.79810    1.000
    C67      C        0.82000    0.39800    0.69600    1.000
    H47      H        0.87230    0.45860    0.70650    1.000
    C68      C        0.78400    0.35000    0.63470    1.000
    H48      H        0.80550    0.37960    0.60060    1.000
    C69      C        0.70900    0.24900    0.61010    1.000
    H49      H        0.68110    0.21560    0.56330    1.000
    C70      C        0.68300    0.20900    0.66590    1.000
    H50      H        0.64130    0.14270    0.65410    1.000
    Ag20     Ag       0.59110    0.04740    0.94020    1.000
