# CIF file generated by openbabel 3.1.0, see https://openbabel.org
data_I
_chemical_name_common 'image0'
_cell_length_a 27.865
_cell_length_b 13.7117
_cell_length_c 45.65
_cell_angle_alpha 90
_cell_angle_beta 90
_cell_angle_gamma 90
_space_group_name_H-M_alt 'P 1'
_space_group_name_Hall 'P 1'
loop_
    _symmetry_equiv_pos_as_xyz
    x,y,z
loop_
    _atom_site_label
    _atom_site_type_symbol
    _atom_site_fract_x
    _atom_site_fract_y
    _atom_site_fract_z
    _atom_site_occupancy
    C1       C        0.05530    0.00510    0.53150    1.000
    H1       H        0.03760    0.03440    0.54690    1.000
    C2       C        0.06680    0.06170    0.50740    1.000
    H2       H        0.05650    0.12760    0.50620    1.000
    C3       C        0.09370    0.02050    0.48520    1.000
    C4       C        0.10590    0.92340    0.48760    1.000
    H3       H        0.12370    0.89250    0.47250    1.000
    C5       C        0.09220    0.87120    0.51220    1.000
    H4       H        0.10070    0.80430    0.51350    1.000
    C6       C        0.10800    0.07790    0.45900    1.000
    C7       C        0.10830    0.21790    0.43340    1.000
    C8       C        0.14110    0.08320    0.41380    1.000
    C9       C        0.09240    0.32220    0.42980    1.000
    C10      C        0.06690    0.36670    0.45170    1.000
    H5       H        0.06090    0.33430    0.46970    1.000
    C11      C        0.04980    0.46120    0.44670    1.000
    H6       H        0.03260    0.49320    0.46190    1.000
    C12      C        0.08150    0.46320    0.40050    1.000
    H7       H        0.08660    0.49660    0.38260    1.000
    C13      C        0.10010    0.36990    0.40370    1.000
    H8       H        0.11770    0.33990    0.38830    1.000
    C14      C        0.16340    0.03130    0.38900    1.000
    C15      C        0.18510    0.07900    0.36600    1.000
    H9       H        0.18590    0.14830    0.36560    1.000
    C16      C        0.20550    0.02780    0.34370    1.000
    H10      H        0.22010    0.06270    0.32800    1.000
    C17      C        0.18420    0.88250    0.36450    1.000
    H11      H        0.18300    0.81330    0.36410    1.000
    C18      C        0.16300    0.93250    0.38810    1.000
    H12      H        0.14820    0.89670    0.40350    1.000
    C19      C        0.30870    0.06160    0.76250    1.000
    H13      H        0.33600    0.07930    0.77370    1.000
    C20      C        0.31610    0.02740    0.73420    1.000
    H14      H        0.34760    0.02230    0.72630    1.000
    C21      C        0.27660    0.00130    0.71820    1.000
    C22      C        0.23210    0.00560    0.73080    1.000
    H15      H        0.20460    0.98490    0.72020    1.000
    C23      C        0.22770    0.04070    0.75940    1.000
    H16      H        0.19690    0.04340    0.76830    1.000
    C24      C        0.28130    0.97030    0.68670    1.000
    C25      C        0.32650    0.93580    0.64710    1.000
    C26      C        0.24510    0.93290    0.64396    1.000
    C27      C        0.37360    0.92350    0.63280    1.000
    C28      C        0.41560    0.92920    0.64840    1.000
    H17      H        0.41520    0.94380    0.66880    1.000
    C29      C        0.45900    0.91330    0.63380    1.000
    H18      H        0.48800    0.91730    0.64470    1.000
    C30      C        0.42100    0.88860    0.59020    1.000
    H19      H        0.42250    0.87520    0.56980    1.000
    C31      C        0.37620    0.90320    0.60290    1.000
    H20      H        0.34780    0.89940    0.59140    1.000
    C32      C        0.20170    0.91610    0.62670    1.000
    C33      C        0.20410    0.88540    0.59750    1.000
    H21      H        0.23410    0.87760    0.58790    1.000
    C34      C        0.16150    0.86700    0.58310    1.000
    H22      H        0.16300    0.84470    0.56340    1.000
    C35      C        0.11640    0.91190    0.62270    1.000
    H23      H        0.08580    0.92390    0.63110    1.000
    C36      C        0.15650    0.92960    0.63930    1.000
    H24      H        0.15360    0.95070    0.65910    1.000
    I1       I        0.98845    0.91799    0.60026    1.000
    I2       I        0.07129    0.65610    0.56378    1.000
    I3       I        0.19586    0.69184    0.30449    1.000
    I4       I        0.33090    0.84346    0.32608    1.000
    I5       I        0.07341    0.72880    0.37407    1.000
    I6       I        0.00899    0.71916    0.46423    1.000
    N1       N        0.06760    0.91140    0.53413    1.000
    N2       N        0.09600    0.17190    0.45777    1.000
    N3       N        0.13190    0.17870    0.41068    1.000
    N4       N        0.13010    0.02960    0.43711    1.000
    N5       N        0.05680    0.50790    0.42161    1.000
    N6       N        0.20590    0.92910    0.34281    1.000
    N7       N        0.26630    0.07090    0.77457    1.000
    N8       N        0.32560    0.96060    0.67544    1.000
    N9       N        0.28780    0.92090    0.63077    1.000
    N10      N        0.24050    0.95750    0.67194    1.000
    N11      N        0.46180    0.89250    0.60513    1.000
    N12      N        0.11850    0.87860    0.59512    1.000
    Zn1      Zn       0.05678    0.83735    0.57289    1.000
    Zn2      Zn       0.24251    0.85001    0.31245    1.000
    Zn3      Zn       0.02628    0.64309    0.41430    1.000
    C37      C        0.44470    0.99490    0.03150    1.000
    H25      H        0.46240    0.96560    0.04690    1.000
    C38      C        0.43320    0.93830    0.00740    1.000
    H26      H        0.44350    0.87240    0.00620    1.000
    C39      C        0.40630    0.97950    0.98520    1.000
    C40      C        0.39410    0.07660    0.98760    1.000
    H27      H        0.37630    0.10750    0.97250    1.000
    C41      C        0.40780    0.12880    0.01220    1.000
    H28      H        0.39930    0.19570    0.01350    1.000
    C42      C        0.39200    0.92210    0.95900    1.000
    C43      C        0.39170    0.78210    0.93340    1.000
    C44      C        0.35890    0.91680    0.91380    1.000
    C45      C        0.40760    0.67780    0.92980    1.000
    C46      C        0.43310    0.63330    0.95170    1.000
    H29      H        0.43910    0.66570    0.96970    1.000
    C47      C        0.45020    0.53880    0.94670    1.000
    H30      H        0.46740    0.50680    0.96190    1.000
    C48      C        0.41850    0.53680    0.90050    1.000
    H31      H        0.41340    0.50340    0.88260    1.000
    C49      C        0.39990    0.63010    0.90370    1.000
    H32      H        0.38230    0.66010    0.88830    1.000
    C50      C        0.33660    0.96870    0.88900    1.000
    C51      C        0.31490    0.92100    0.86600    1.000
    H33      H        0.31410    0.85170    0.86560    1.000
    C52      C        0.29450    0.97220    0.84370    1.000
    H34      H        0.27990    0.93730    0.82800    1.000
    C53      C        0.31580    0.11750    0.86450    1.000
    H35      H        0.31700    0.18670    0.86410    1.000
    C54      C        0.33700    0.06750    0.88810    1.000
    H36      H        0.35180    0.10330    0.90350    1.000
    C55      C        0.19130    0.93840    0.26250    1.000
    H37      H        0.16400    0.92070    0.27370    1.000
    C56      C        0.18390    0.97260    0.23420    1.000
    H38      H        0.15240    0.97770    0.22630    1.000
    C57      C        0.22340    0.99870    0.21820    1.000
    C58      C        0.26790    0.99440    0.23080    1.000
    H39      H        0.29540    0.01510    0.22020    1.000
    C59      C        0.27230    0.95930    0.25940    1.000
    H40      H        0.30310    0.95660    0.26830    1.000
    C60      C        0.21870    0.02970    0.18670    1.000
    C61      C        0.17350    0.06420    0.14710    1.000
    C62      C        0.25490    0.06710    0.14396    1.000
    C63      C        0.12640    0.07650    0.13280    1.000
    C64      C        0.08440    0.07080    0.14840    1.000
    H41      H        0.08480    0.05620    0.16880    1.000
    C65      C        0.04100    0.08670    0.13380    1.000
    H42      H        0.01200    0.08270    0.14470    1.000
    C66      C        0.07900    0.11140    0.09020    1.000
    H43      H        0.07750    0.12480    0.06980    1.000
    C67      C        0.12380    0.09680    0.10290    1.000
    H44      H        0.15220    0.10060    0.09140    1.000
    C68      C        0.29830    0.08390    0.12670    1.000
    C69      C        0.29590    0.11460    0.09750    1.000
    H45      H        0.26590    0.12240    0.08790    1.000
    C70      C        0.33850    0.13300    0.08310    1.000
    H46      H        0.33700    0.15530    0.06340    1.000
    C71      C        0.38360    0.08810    0.12270    1.000
    H47      H        0.41420    0.07610    0.13110    1.000
    C72      C        0.34350    0.07040    0.13930    1.000
    H48      H        0.34640    0.04930    0.15910    1.000
    I7       I        0.51155    0.08201    0.10026    1.000
    I8       I        0.42871    0.34390    0.06378    1.000
    I9       I        0.30414    0.30816    0.80449    1.000
    I10      I        0.16910    0.15654    0.82608    1.000
    I11      I        0.42659    0.27120    0.87407    1.000
    I12      I        0.49101    0.28084    0.96423    1.000
    N13      N        0.43240    0.08860    0.03413    1.000
    N14      N        0.40400    0.82810    0.95777    1.000
    N15      N        0.36810    0.82130    0.91068    1.000
    N16      N        0.36990    0.97040    0.93711    1.000
    N17      N        0.44320    0.49210    0.92161    1.000
    N18      N        0.29410    0.07090    0.84281    1.000
    N19      N        0.23370    0.92910    0.27457    1.000
    N20      N        0.17440    0.03940    0.17544    1.000
    N21      N        0.21220    0.07910    0.13077    1.000
    N22      N        0.25950    0.04250    0.17194    1.000
    N23      N        0.03820    0.10750    0.10513    1.000
    N24      N        0.38150    0.12140    0.09512    1.000
    Zn4      Zn       0.44322    0.16265    0.07289    1.000
    Zn5      Zn       0.25749    0.14999    0.81245    1.000
    Zn6      Zn       0.47372    0.35691    0.91430    1.000
    C73      C        0.94470    0.50510    0.96850    1.000
    H49      H        0.96240    0.53440    0.95310    1.000
    C74      C        0.93320    0.56170    0.99260    1.000
    H50      H        0.94350    0.62760    0.99380    1.000
    C75      C        0.90630    0.52050    0.01480    1.000
    C76      C        0.89410    0.42340    0.01240    1.000
    H51      H        0.87630    0.39250    0.02750    1.000
    C77      C        0.90780    0.37120    0.98780    1.000
    H52      H        0.89930    0.30430    0.98650    1.000
    C78      C        0.89200    0.57790    0.04100    1.000
    C79      C        0.89170    0.71790    0.06660    1.000
    C80      C        0.85890    0.58320    0.08620    1.000
    C81      C        0.90760    0.82220    0.07020    1.000
    C82      C        0.93310    0.86670    0.04830    1.000
    H53      H        0.93910    0.83430    0.03030    1.000
    C83      C        0.95020    0.96120    0.05330    1.000
    H54      H        0.96740    0.99320    0.03810    1.000
    C84      C        0.91850    0.96320    0.09950    1.000
    H55      H        0.91340    0.99660    0.11740    1.000
    C85      C        0.89990    0.86990    0.09630    1.000
    H56      H        0.88230    0.83990    0.11170    1.000
    C86      C        0.83660    0.53130    0.11100    1.000
    C87      C        0.81490    0.57900    0.13400    1.000
    H57      H        0.81410    0.64830    0.13440    1.000
    C88      C        0.79450    0.52780    0.15630    1.000
    H58      H        0.77990    0.56270    0.17200    1.000
    C89      C        0.81580    0.38250    0.13550    1.000
    H59      H        0.81700    0.31330    0.13590    1.000
    C90      C        0.83700    0.43250    0.11190    1.000
    H60      H        0.85180    0.39670    0.09650    1.000
    C91      C        0.69130    0.56160    0.73750    1.000
    H61      H        0.66400    0.57930    0.72630    1.000
    C92      C        0.68390    0.52740    0.76580    1.000
    H62      H        0.65240    0.52230    0.77370    1.000
    C93      C        0.72340    0.50130    0.78180    1.000
    C94      C        0.76790    0.50560    0.76920    1.000
    H63      H        0.79540    0.48490    0.77980    1.000
    C95      C        0.77230    0.54070    0.74060    1.000
    H64      H        0.80310    0.54340    0.73170    1.000
    C96      C        0.71870    0.47030    0.81330    1.000
    C97      C        0.67350    0.43580    0.85290    1.000
    C98      C        0.75490    0.43290    0.85604    1.000
    C99      C        0.62640    0.42350    0.86720    1.000
    C100     C        0.58440    0.42920    0.85160    1.000
    H65      H        0.58480    0.44380    0.83120    1.000
    C101     C        0.54100    0.41330    0.86620    1.000
    H66      H        0.51200    0.41730    0.85530    1.000
    C102     C        0.57900    0.38860    0.90980    1.000
    H67      H        0.57750    0.37520    0.93020    1.000
    C103     C        0.62380    0.40320    0.89710    1.000
    H68      H        0.65220    0.39940    0.90860    1.000
    C104     C        0.79830    0.41610    0.87330    1.000
    C105     C        0.79590    0.38540    0.90250    1.000
    H69      H        0.76590    0.37760    0.91210    1.000
    C106     C        0.83850    0.36700    0.91690    1.000
    H70      H        0.83700    0.34470    0.93660    1.000
    C107     C        0.88360    0.41190    0.87730    1.000
    H71      H        0.91420    0.42390    0.86890    1.000
    C108     C        0.84350    0.42960    0.86070    1.000
    H72      H        0.84640    0.45070    0.84090    1.000
    I13      I        0.01155    0.41799    0.89974    1.000
    I14      I        0.92871    0.15610    0.93622    1.000
    I15      I        0.80414    0.19184    0.19551    1.000
    I16      I        0.66910    0.34346    0.17392    1.000
    I17      I        0.92659    0.22880    0.12593    1.000
    I18      I        0.99101    0.21916    0.03577    1.000
    N25      N        0.93240    0.41140    0.96587    1.000
    N26      N        0.90400    0.67190    0.04223    1.000
    N27      N        0.86810    0.67870    0.08932    1.000
    N28      N        0.86990    0.52960    0.06289    1.000
    N29      N        0.94320    0.00790    0.07839    1.000
    N30      N        0.79410    0.42910    0.15719    1.000
    N31      N        0.73370    0.57090    0.72543    1.000
    N32      N        0.67440    0.46060    0.82456    1.000
    N33      N        0.71220    0.42090    0.86923    1.000
    N34      N        0.75950    0.45750    0.82806    1.000
    N35      N        0.53820    0.39250    0.89487    1.000
    N36      N        0.88150    0.37860    0.90488    1.000
    Zn7      Zn       0.94322    0.33735    0.92711    1.000
    Zn8      Zn       0.75749    0.35001    0.18755    1.000
    Zn9      Zn       0.97372    0.14309    0.08570    1.000
    C109     C        0.55530    0.49490    0.46850    1.000
    H73      H        0.53760    0.46560    0.45310    1.000
    C110     C        0.56680    0.43830    0.49260    1.000
    H74      H        0.55650    0.37240    0.49380    1.000
    C111     C        0.59370    0.47950    0.51480    1.000
    C112     C        0.60590    0.57660    0.51240    1.000
    H75      H        0.62370    0.60750    0.52750    1.000
    C113     C        0.59220    0.62880    0.48780    1.000
    H76      H        0.60070    0.69570    0.48650    1.000
    C114     C        0.60800    0.42210    0.54100    1.000
    C115     C        0.60830    0.28210    0.56660    1.000
    C116     C        0.64110    0.41680    0.58620    1.000
    C117     C        0.59240    0.17780    0.57020    1.000
    C118     C        0.56690    0.13330    0.54830    1.000
    H77      H        0.56090    0.16570    0.53030    1.000
    C119     C        0.54980    0.03880    0.55330    1.000
    H78      H        0.53260    0.00680    0.53810    1.000
    C120     C        0.58150    0.03680    0.59950    1.000
    H79      H        0.58660    0.00340    0.61740    1.000
    C121     C        0.60010    0.13010    0.59630    1.000
    H80      H        0.61770    0.16010    0.61170    1.000
    C122     C        0.66340    0.46870    0.61100    1.000
    C123     C        0.68510    0.42100    0.63400    1.000
    H81      H        0.68590    0.35170    0.63440    1.000
    C124     C        0.70550    0.47220    0.65630    1.000
    H82      H        0.72010    0.43730    0.67200    1.000
    C125     C        0.68420    0.61750    0.63550    1.000
    H83      H        0.68300    0.68670    0.63590    1.000
    C126     C        0.66300    0.56750    0.61190    1.000
    H84      H        0.64820    0.60330    0.59650    1.000
    C127     C        0.80870    0.43840    0.23750    1.000
    H85      H        0.83600    0.42070    0.22630    1.000
    C128     C        0.81610    0.47260    0.26580    1.000
    H86      H        0.84760    0.47770    0.27370    1.000
    C129     C        0.77660    0.49870    0.28180    1.000
    C130     C        0.73210    0.49440    0.26920    1.000
    H87      H        0.70460    0.51510    0.27980    1.000
    C131     C        0.72770    0.45930    0.24060    1.000
    H88      H        0.69690    0.45660    0.23170    1.000
    C132     C        0.78130    0.52970    0.31330    1.000
    C133     C        0.82650    0.56420    0.35290    1.000
    C134     C        0.74510    0.56710    0.35604    1.000
    C135     C        0.87360    0.57650    0.36720    1.000
    C136     C        0.91560    0.57080    0.35160    1.000
    H89      H        0.91520    0.55620    0.33120    1.000
    C137     C        0.95900    0.58670    0.36620    1.000
    H90      H        0.98800    0.58270    0.35530    1.000
    C138     C        0.92100    0.61140    0.40980    1.000
    H91      H        0.92250    0.62480    0.43020    1.000
    C139     C        0.87620    0.59680    0.39710    1.000
    H92      H        0.84780    0.60060    0.40860    1.000
    C140     C        0.70170    0.58390    0.37330    1.000
    C141     C        0.70410    0.61460    0.40250    1.000
    H93      H        0.73410    0.62240    0.41210    1.000
    C142     C        0.66150    0.63300    0.41690    1.000
    H94      H        0.66300    0.65530    0.43660    1.000
    C143     C        0.61640    0.58810    0.37730    1.000
    H95      H        0.58580    0.57610    0.36890    1.000
    C144     C        0.65650    0.57040    0.36070    1.000
    H96      H        0.65360    0.54930    0.34090    1.000
    I19      I        0.48845    0.58201    0.39974    1.000
    I20      I        0.57129    0.84390    0.43622    1.000
    I21      I        0.69586    0.80816    0.69551    1.000
    I22      I        0.83090    0.65654    0.67392    1.000
    I23      I        0.57341    0.77120    0.62593    1.000
    I24      I        0.50899    0.78084    0.53577    1.000
    N37      N        0.56760    0.58860    0.46587    1.000
    N38      N        0.59600    0.32810    0.54223    1.000
    N39      N        0.63190    0.32130    0.58932    1.000
    N40      N        0.63010    0.47040    0.56289    1.000
    N41      N        0.55680    0.99210    0.57839    1.000
    N42      N        0.70590    0.57090    0.65719    1.000
    N43      N        0.76630    0.42910    0.22543    1.000
    N44      N        0.82560    0.53940    0.32456    1.000
    N45      N        0.78780    0.57910    0.36923    1.000
    N46      N        0.74050    0.54250    0.32806    1.000
    N47      N        0.96180    0.60750    0.39487    1.000
    N48      N        0.61850    0.62140    0.40488    1.000
    Zn10     Zn       0.55678    0.66265    0.42711    1.000
    Zn11     Zn       0.74251    0.64999    0.68755    1.000
    Zn12     Zn       0.52628    0.85691    0.58570    1.000
    C145     C        0.94470    0.99490    0.46850    1.000
    H97      H        0.96240    0.96560    0.45310    1.000
    C146     C        0.93320    0.93830    0.49260    1.000
    H98      H        0.94350    0.87240    0.49380    1.000
    C147     C        0.90630    0.97950    0.51480    1.000
    C148     C        0.89410    0.07660    0.51240    1.000
    H99      H        0.87630    0.10750    0.52750    1.000
    C149     C        0.90780    0.12880    0.48780    1.000
    H100     H        0.89930    0.19570    0.48650    1.000
    C150     C        0.89200    0.92210    0.54100    1.000
    C151     C        0.89170    0.78210    0.56660    1.000
    C152     C        0.85890    0.91680    0.58620    1.000
    C153     C        0.90760    0.67780    0.57020    1.000
    C154     C        0.93310    0.63330    0.54830    1.000
    H101     H        0.93910    0.66570    0.53030    1.000
    C155     C        0.95020    0.53880    0.55330    1.000
    H102     H        0.96740    0.50680    0.53810    1.000
    C156     C        0.91850    0.53680    0.59950    1.000
    H103     H        0.91340    0.50340    0.61740    1.000
    C157     C        0.89990    0.63010    0.59630    1.000
    H104     H        0.88230    0.66010    0.61170    1.000
    C158     C        0.83660    0.96870    0.61100    1.000
    C159     C        0.81490    0.92100    0.63400    1.000
    H105     H        0.81410    0.85170    0.63440    1.000
    C160     C        0.79450    0.97220    0.65630    1.000
    H106     H        0.77990    0.93730    0.67200    1.000
    C161     C        0.81580    0.11750    0.63550    1.000
    H107     H        0.81700    0.18670    0.63590    1.000
    C162     C        0.83700    0.06750    0.61190    1.000
    H108     H        0.85180    0.10330    0.59650    1.000
    C163     C        0.69130    0.93840    0.23750    1.000
    H109     H        0.66400    0.92070    0.22630    1.000
    C164     C        0.68390    0.97260    0.26580    1.000
    H110     H        0.65240    0.97770    0.27370    1.000
    C165     C        0.72340    0.99870    0.28180    1.000
    C166     C        0.76790    0.99440    0.26920    1.000
    H111     H        0.79540    0.01510    0.27980    1.000
    C167     C        0.77230    0.95930    0.24060    1.000
    H112     H        0.80310    0.95660    0.23170    1.000
    C168     C        0.71870    0.02970    0.31330    1.000
    C169     C        0.67350    0.06420    0.35290    1.000
    C170     C        0.75490    0.06710    0.35604    1.000
    C171     C        0.62640    0.07650    0.36720    1.000
    C172     C        0.58440    0.07080    0.35160    1.000
    H113     H        0.58480    0.05620    0.33120    1.000
    C173     C        0.54100    0.08670    0.36620    1.000
    H114     H        0.51200    0.08270    0.35530    1.000
    C174     C        0.57900    0.11140    0.40980    1.000
    H115     H        0.57750    0.12480    0.43020    1.000
    C175     C        0.62380    0.09680    0.39710    1.000
    H116     H        0.65220    0.10060    0.40860    1.000
    C176     C        0.79830    0.08390    0.37330    1.000
    C177     C        0.79590    0.11460    0.40250    1.000
    H117     H        0.76590    0.12240    0.41210    1.000
    C178     C        0.83850    0.13300    0.41690    1.000
    H118     H        0.83700    0.15530    0.43660    1.000
    C179     C        0.88360    0.08810    0.37730    1.000
    H119     H        0.91420    0.07610    0.36890    1.000
    C180     C        0.84350    0.07040    0.36070    1.000
    H120     H        0.84640    0.04930    0.34090    1.000
    I25      I        0.01155    0.08201    0.39974    1.000
    I26      I        0.92871    0.34390    0.43622    1.000
    I27      I        0.80414    0.30816    0.69551    1.000
    I28      I        0.66910    0.15654    0.67392    1.000
    I29      I        0.92659    0.27120    0.62593    1.000
    I30      I        0.99101    0.28084    0.53577    1.000
    N49      N        0.93240    0.08860    0.46587    1.000
    N50      N        0.90400    0.82810    0.54223    1.000
    N51      N        0.86810    0.82130    0.58932    1.000
    N52      N        0.86990    0.97040    0.56289    1.000
    N53      N        0.94320    0.49210    0.57839    1.000
    N54      N        0.79410    0.07090    0.65719    1.000
    N55      N        0.73370    0.92910    0.22543    1.000
    N56      N        0.67440    0.03940    0.32456    1.000
    N57      N        0.71220    0.07910    0.36923    1.000
    N58      N        0.75950    0.04250    0.32806    1.000
    N59      N        0.53820    0.10750    0.39487    1.000
    N60      N        0.88150    0.12140    0.40488    1.000
    Zn13     Zn       0.94322    0.16265    0.42711    1.000
    Zn14     Zn       0.75749    0.14999    0.68755    1.000
    Zn15     Zn       0.97372    0.35691    0.58570    1.000
    C181     C        0.55530    0.00510    0.96850    1.000
    H121     H        0.53760    0.03440    0.95310    1.000
    C182     C        0.56680    0.06170    0.99260    1.000
    H122     H        0.55650    0.12760    0.99380    1.000
    C183     C        0.59370    0.02050    0.01480    1.000
    C184     C        0.60590    0.92340    0.01240    1.000
    H123     H        0.62370    0.89250    0.02750    1.000
    C185     C        0.59220    0.87120    0.98780    1.000
    H124     H        0.60070    0.80430    0.98650    1.000
    C186     C        0.60800    0.07790    0.04100    1.000
    C187     C        0.60830    0.21790    0.06660    1.000
    C188     C        0.64110    0.08320    0.08620    1.000
    C189     C        0.59240    0.32220    0.07020    1.000
    C190     C        0.56690    0.36670    0.04830    1.000
    H125     H        0.56090    0.33430    0.03030    1.000
    C191     C        0.54980    0.46120    0.05330    1.000
    H126     H        0.53260    0.49320    0.03810    1.000
    C192     C        0.58150    0.46320    0.09950    1.000
    H127     H        0.58660    0.49660    0.11740    1.000
    C193     C        0.60010    0.36990    0.09630    1.000
    H128     H        0.61770    0.33990    0.11170    1.000
    C194     C        0.66340    0.03130    0.11100    1.000
    C195     C        0.68510    0.07900    0.13400    1.000
    H129     H        0.68590    0.14830    0.13440    1.000
    C196     C        0.70550    0.02780    0.15630    1.000
    H130     H        0.72010    0.06270    0.17200    1.000
    C197     C        0.68420    0.88250    0.13550    1.000
    H131     H        0.68300    0.81330    0.13590    1.000
    C198     C        0.66300    0.93250    0.11190    1.000
    H132     H        0.64820    0.89670    0.09650    1.000
    C199     C        0.80870    0.06160    0.73750    1.000
    H133     H        0.83600    0.07930    0.72630    1.000
    C200     C        0.81610    0.02740    0.76580    1.000
    H134     H        0.84760    0.02230    0.77370    1.000
    C201     C        0.77660    0.00130    0.78180    1.000
    C202     C        0.73210    0.00560    0.76920    1.000
    H135     H        0.70460    0.98490    0.77980    1.000
    C203     C        0.72770    0.04070    0.74060    1.000
    H136     H        0.69690    0.04340    0.73170    1.000
    C204     C        0.78130    0.97030    0.81330    1.000
    C205     C        0.82650    0.93580    0.85290    1.000
    C206     C        0.74510    0.93290    0.85604    1.000
    C207     C        0.87360    0.92350    0.86720    1.000
    C208     C        0.91560    0.92920    0.85160    1.000
    H137     H        0.91520    0.94380    0.83120    1.000
    C209     C        0.95900    0.91330    0.86620    1.000
    H138     H        0.98800    0.91730    0.85530    1.000
    C210     C        0.92100    0.88860    0.90980    1.000
    H139     H        0.92250    0.87520    0.93020    1.000
    C211     C        0.87620    0.90320    0.89710    1.000
    H140     H        0.84780    0.89940    0.90860    1.000
    C212     C        0.70170    0.91610    0.87330    1.000
    C213     C        0.70410    0.88540    0.90250    1.000
    H141     H        0.73410    0.87760    0.91210    1.000
    C214     C        0.66150    0.86700    0.91690    1.000
    H142     H        0.66300    0.84470    0.93660    1.000
    C215     C        0.61640    0.91190    0.87730    1.000
    H143     H        0.58580    0.92390    0.86890    1.000
    C216     C        0.65650    0.92960    0.86070    1.000
    H144     H        0.65360    0.95070    0.84090    1.000
    I31      I        0.48845    0.91799    0.89974    1.000
    I32      I        0.57129    0.65610    0.93622    1.000
    I33      I        0.69586    0.69184    0.19551    1.000
    I34      I        0.83090    0.84346    0.17392    1.000
    I35      I        0.57341    0.72880    0.12593    1.000
    I36      I        0.50899    0.71916    0.03577    1.000
    N61      N        0.56760    0.91140    0.96587    1.000
    N62      N        0.59600    0.17190    0.04223    1.000
    N63      N        0.63190    0.17870    0.08932    1.000
    N64      N        0.63010    0.02960    0.06289    1.000
    N65      N        0.55680    0.50790    0.07839    1.000
    N66      N        0.70590    0.92910    0.15719    1.000
    N67      N        0.76630    0.07090    0.72543    1.000
    N68      N        0.82560    0.96060    0.82456    1.000
    N69      N        0.78780    0.92090    0.86923    1.000
    N70      N        0.74050    0.95750    0.82806    1.000
    N71      N        0.96180    0.89250    0.89487    1.000
    N72      N        0.61850    0.87860    0.90488    1.000
    Zn16     Zn       0.55678    0.83735    0.92711    1.000
    Zn17     Zn       0.74251    0.85001    0.18755    1.000
    Zn18     Zn       0.52628    0.64309    0.08570    1.000
    C217     C        0.05530    0.49490    0.03150    1.000
    H145     H        0.03760    0.46560    0.04690    1.000
    C218     C        0.06680    0.43830    0.00740    1.000
    H146     H        0.05650    0.37240    0.00620    1.000
    C219     C        0.09370    0.47950    0.98520    1.000
    C220     C        0.10590    0.57660    0.98760    1.000
    H147     H        0.12370    0.60750    0.97250    1.000
    C221     C        0.09220    0.62880    0.01220    1.000
    H148     H        0.10070    0.69570    0.01350    1.000
    C222     C        0.10800    0.42210    0.95900    1.000
    C223     C        0.10830    0.28210    0.93340    1.000
    C224     C        0.14110    0.41680    0.91380    1.000
    C225     C        0.09240    0.17780    0.92980    1.000
    C226     C        0.06690    0.13330    0.95170    1.000
    H149     H        0.06090    0.16570    0.96970    1.000
    C227     C        0.04980    0.03880    0.94670    1.000
    H150     H        0.03260    0.00680    0.96190    1.000
    C228     C        0.08150    0.03680    0.90050    1.000
    H151     H        0.08660    0.00340    0.88260    1.000
    C229     C        0.10010    0.13010    0.90370    1.000
    H152     H        0.11770    0.16010    0.88830    1.000
    C230     C        0.16340    0.46870    0.88900    1.000
    C231     C        0.18510    0.42100    0.86600    1.000
    H153     H        0.18590    0.35170    0.86560    1.000
    C232     C        0.20550    0.47220    0.84370    1.000
    H154     H        0.22010    0.43730    0.82800    1.000
    C233     C        0.18420    0.61750    0.86450    1.000
    H155     H        0.18300    0.68670    0.86410    1.000
    C234     C        0.16300    0.56750    0.88810    1.000
    H156     H        0.14820    0.60330    0.90350    1.000
    C235     C        0.30870    0.43840    0.26250    1.000
    H157     H        0.33600    0.42070    0.27370    1.000
    C236     C        0.31610    0.47260    0.23420    1.000
    H158     H        0.34760    0.47770    0.22630    1.000
    C237     C        0.27660    0.49870    0.21820    1.000
    C238     C        0.23210    0.49440    0.23080    1.000
    H159     H        0.20460    0.51510    0.22020    1.000
    C239     C        0.22770    0.45930    0.25940    1.000
    H160     H        0.19690    0.45660    0.26830    1.000
    C240     C        0.28130    0.52970    0.18670    1.000
    C241     C        0.32650    0.56420    0.14710    1.000
    C242     C        0.24510    0.56710    0.14396    1.000
    C243     C        0.37360    0.57650    0.13280    1.000
    C244     C        0.41560    0.57080    0.14840    1.000
    H161     H        0.41520    0.55620    0.16880    1.000
    C245     C        0.45900    0.58670    0.13380    1.000
    H162     H        0.48800    0.58270    0.14470    1.000
    C246     C        0.42100    0.61140    0.09020    1.000
    H163     H        0.42250    0.62480    0.06980    1.000
    C247     C        0.37620    0.59680    0.10290    1.000
    H164     H        0.34780    0.60060    0.09140    1.000
    C248     C        0.20170    0.58390    0.12670    1.000
    C249     C        0.20410    0.61460    0.09750    1.000
    H165     H        0.23410    0.62240    0.08790    1.000
    C250     C        0.16150    0.63300    0.08310    1.000
    H166     H        0.16300    0.65530    0.06340    1.000
    C251     C        0.11640    0.58810    0.12270    1.000
    H167     H        0.08580    0.57610    0.13110    1.000
    C252     C        0.15650    0.57040    0.13930    1.000
    H168     H        0.15360    0.54930    0.15910    1.000
    I37      I        0.98845    0.58201    0.10026    1.000
    I38      I        0.07129    0.84390    0.06378    1.000
    I39      I        0.19586    0.80816    0.80449    1.000
    I40      I        0.33090    0.65654    0.82608    1.000
    I41      I        0.07341    0.77120    0.87407    1.000
    I42      I        0.00899    0.78084    0.96423    1.000
    N73      N        0.06760    0.58860    0.03413    1.000
    N74      N        0.09600    0.32810    0.95777    1.000
    N75      N        0.13190    0.32130    0.91068    1.000
    N76      N        0.13010    0.47040    0.93711    1.000
    N77      N        0.05680    0.99210    0.92161    1.000
    N78      N        0.20590    0.57090    0.84281    1.000
    N79      N        0.26630    0.42910    0.27457    1.000
    N80      N        0.32560    0.53940    0.17544    1.000
    N81      N        0.28780    0.57910    0.13077    1.000
    N82      N        0.24050    0.54250    0.17194    1.000
    N83      N        0.46180    0.60750    0.10513    1.000
    N84      N        0.11850    0.62140    0.09512    1.000
    Zn19     Zn       0.05678    0.66265    0.07289    1.000
    Zn20     Zn       0.24251    0.64999    0.81245    1.000
    Zn21     Zn       0.02628    0.85691    0.91430    1.000
    C253     C        0.44470    0.50510    0.53150    1.000
    H169     H        0.46240    0.53440    0.54690    1.000
    C254     C        0.43320    0.56170    0.50740    1.000
    H170     H        0.44350    0.62760    0.50620    1.000
    C255     C        0.40630    0.52050    0.48520    1.000
    C256     C        0.39410    0.42340    0.48760    1.000
    H171     H        0.37630    0.39250    0.47250    1.000
    C257     C        0.40780    0.37120    0.51220    1.000
    H172     H        0.39930    0.30430    0.51350    1.000
    C258     C        0.39200    0.57790    0.45900    1.000
    C259     C        0.39170    0.71790    0.43340    1.000
    C260     C        0.35890    0.58320    0.41380    1.000
    C261     C        0.40760    0.82220    0.42980    1.000
    C262     C        0.43310    0.86670    0.45170    1.000
    H173     H        0.43910    0.83430    0.46970    1.000
    C263     C        0.45020    0.96120    0.44670    1.000
    H174     H        0.46740    0.99320    0.46190    1.000
    C264     C        0.41850    0.96320    0.40050    1.000
    H175     H        0.41340    0.99660    0.38260    1.000
    C265     C        0.39990    0.86990    0.40370    1.000
    H176     H        0.38230    0.83990    0.38830    1.000
    C266     C        0.33660    0.53130    0.38900    1.000
    C267     C        0.31490    0.57900    0.36600    1.000
    H177     H        0.31410    0.64830    0.36560    1.000
    C268     C        0.29450    0.52780    0.34370    1.000
    H178     H        0.27990    0.56270    0.32800    1.000
    C269     C        0.31580    0.38250    0.36450    1.000
    H179     H        0.31700    0.31330    0.36410    1.000
    C270     C        0.33700    0.43250    0.38810    1.000
    H180     H        0.35180    0.39670    0.40350    1.000
    C271     C        0.19130    0.56160    0.76250    1.000
    H181     H        0.16400    0.57930    0.77370    1.000
    C272     C        0.18390    0.52740    0.73420    1.000
    H182     H        0.15240    0.52230    0.72630    1.000
    C273     C        0.22340    0.50130    0.71820    1.000
    C274     C        0.26790    0.50560    0.73080    1.000
    H183     H        0.29540    0.48490    0.72020    1.000
    C275     C        0.27230    0.54070    0.75940    1.000
    H184     H        0.30310    0.54340    0.76830    1.000
    C276     C        0.21870    0.47030    0.68670    1.000
    C277     C        0.17350    0.43580    0.64710    1.000
    C278     C        0.25490    0.43290    0.64396    1.000
    C279     C        0.12640    0.42350    0.63280    1.000
    C280     C        0.08440    0.42920    0.64840    1.000
    H185     H        0.08480    0.44380    0.66880    1.000
    C281     C        0.04100    0.41330    0.63380    1.000
    H186     H        0.01200    0.41730    0.64470    1.000
    C282     C        0.07900    0.38860    0.59020    1.000
    H187     H        0.07750    0.37520    0.56980    1.000
    C283     C        0.12380    0.40320    0.60290    1.000
    H188     H        0.15220    0.39940    0.59140    1.000
    C284     C        0.29830    0.41610    0.62670    1.000
    C285     C        0.29590    0.38540    0.59750    1.000
    H189     H        0.26590    0.37760    0.58790    1.000
    C286     C        0.33850    0.36700    0.58310    1.000
    H190     H        0.33700    0.34470    0.56340    1.000
    C287     C        0.38360    0.41190    0.62270    1.000
    H191     H        0.41420    0.42390    0.63110    1.000
    C288     C        0.34350    0.42960    0.63930    1.000
    H192     H        0.34640    0.45070    0.65910    1.000
    I43      I        0.51155    0.41799    0.60026    1.000
    I44      I        0.42871    0.15610    0.56378    1.000
    I45      I        0.30414    0.19184    0.30449    1.000
    I46      I        0.16910    0.34346    0.32608    1.000
    I47      I        0.42659    0.22880    0.37407    1.000
    I48      I        0.49101    0.21916    0.46423    1.000
    N85      N        0.43240    0.41140    0.53413    1.000
    N86      N        0.40400    0.67190    0.45777    1.000
    N87      N        0.36810    0.67870    0.41068    1.000
    N88      N        0.36990    0.52960    0.43711    1.000
    N89      N        0.44320    0.00790    0.42161    1.000
    N90      N        0.29410    0.42910    0.34281    1.000
    N91      N        0.23370    0.57090    0.77457    1.000
    N92      N        0.17440    0.46060    0.67544    1.000
    N93      N        0.21220    0.42090    0.63077    1.000
    N94      N        0.25950    0.45750    0.67194    1.000
    N95      N        0.03820    0.39250    0.60513    1.000
    N96      N        0.38150    0.37860    0.59512    1.000
    Zn22     Zn       0.44322    0.33735    0.57289    1.000
    Zn23     Zn       0.25749    0.35001    0.31245    1.000
    Zn24     Zn       0.47372    0.14309    0.41430    1.000
