# CIF file generated by openbabel 3.1.0, see https://openbabel.org
data_I
_chemical_name_common 'image0'
_cell_length_a 22.018
_cell_length_b 20.783
_cell_length_c 37.062
_cell_angle_alpha 90
_cell_angle_beta 94.845
_cell_angle_gamma 90
_space_group_name_H-M_alt 'P 1'
_space_group_name_Hall 'P 1'
loop_
    _symmetry_equiv_pos_as_xyz
    x,y,z
loop_
    _atom_site_label
    _atom_site_type_symbol
    _atom_site_fract_x
    _atom_site_fract_y
    _atom_site_fract_z
    _atom_site_occupancy
    Zn1      Zn       0.77166    0.17991    0.64890    1.000
    N1       N        0.77933    0.09145    0.67472    1.000
    O1       O        0.82903    0.23243    0.68440    1.000
    O2       O        0.83772    0.17308    0.61534    1.000
    O3       O        0.70313    0.21707    0.67372    1.000
    O4       O        0.71007    0.15567    0.60647    1.000
    C1       C        0.84119    0.08606    0.69233    1.000
    C2       C        0.76811    0.03724    0.64832    1.000
    C3       C        0.73494    0.08422    0.70324    1.000
    C4       C        0.83571    0.29160    0.68513    1.000
    C5       C        0.84594    0.21560    0.59171    1.000
    C6       C        0.67692    0.27070    0.67378    1.000
    C7       C        0.68495    0.19700    0.58683    1.000
    N2       N        0.85074    0.02425    0.71127    1.000
    H1       H        0.84850    0.12170    0.70990    1.000
    H2       H        0.87090    0.09020    0.67390    1.000
    N3       N        0.77732    0.97427    0.66705    1.000
    H3       H        0.72590    0.03990    0.63690    1.000
    H4       H        0.79640    0.04090    0.62900    1.000
    N4       N        0.74332    0.02231    0.72182    1.000
    H5       H        0.74110    0.11960    0.72110    1.000
    H6       H        0.69280    0.08720    0.69180    1.000
    O5       O        0.81786    0.32997    0.66041    1.000
    C8       C        0.86675    0.32052    0.71893    1.000
    O6       O        0.82151    0.26925    0.58949    1.000
    C9       C        0.88978    0.19789    0.56452    1.000
    O7       O        0.69055    0.31808    0.65588    1.000
    C10      C        0.62577    0.27720    0.69733    1.000
    O8       O        0.69482    0.25610    0.58880    1.000
    C11      C        0.63660    0.17490    0.55801    1.000
    Zn2      Zn       0.93903    0.01971    0.73461    1.000
    C12      C        0.83990    0.97100    0.68482    1.000
    C13      C        0.80546    0.01793    0.73924    1.000
    Zn3      Zn       0.76524    0.89764    0.63057    1.000
    C14      C        0.73320    0.97042    0.69608    1.000
    Zn4      Zn       0.75526    0.30814    0.61938    1.000
    C15      C        0.90459    0.28360    0.74291    1.000
    C16      C        0.85670    0.38500    0.72788    1.000
    C17      C        0.92210    0.14070    0.56781    1.000
    C18      C        0.89875    0.23710    0.53541    1.000
    C19      C        0.61100    0.22620    0.71862    1.000
    C20      C        0.59230    0.33150    0.69856    1.000
    C21      C        0.62280    0.11430    0.55196    1.000
    C22      C        0.60510    0.21990    0.53701    1.000
    O9       O        0.98114    0.96157    0.70101    1.000
    O10      O        0.92894    0.94298    0.76716    1.000
    O11      O        0.92629    0.07798    0.77664    1.000
    O12      O        0.97399    0.09534    0.70871    1.000
    H7       H        0.86960    0.97390    0.66630    1.000
    H8       H        0.84600    0.92920    0.69740    1.000
    H9       H        0.81110    0.97600    0.75180    1.000
    H10      H        0.81220    0.05250    0.75750    1.000
    O13      O        0.79910    0.83730    0.66976    1.000
    O14      O        0.82500    0.86120    0.60137    1.000
    O15      O        0.70110    0.90650    0.59280    1.000
    H11      H        0.69090    0.97270    0.68470    1.000
    H12      H        0.73830    0.92870    0.70890    1.000
    N5       N        0.74146    0.39703    0.59549    1.000
    H13      H        0.91230    0.24000    0.73720    1.000
    C23      C        0.93100    0.30950    0.77480    1.000
    C24      C        0.88090    0.41010    0.76027    1.000
    H14      H        0.83290    0.41170    0.71140    1.000
    H15      H        0.91710    0.11290    0.58770    1.000
    C25      C        0.96220    0.12350    0.54207    1.000
    C26      C        0.93817    0.22050    0.51014    1.000
    H16      H        0.87710    0.27660    0.53280    1.000
    H17      H        0.63460    0.18790    0.71870    1.000
    C27      C        0.56320    0.22980    0.73945    1.000
    C28      C        0.54300    0.33460    0.71903    1.000
    H18      H        0.60280    0.36810    0.68510    1.000
    H19      H        0.64460    0.08200    0.56580    1.000
    C29      C        0.57740    0.09620    0.52608    1.000
    C30      C        0.55810    0.20080    0.51128    1.000
    H20      H        0.61500    0.26420    0.53980    1.000
    C31      C        0.03150    0.93310    0.70635    1.000
    C32      C        0.79181    0.41076    0.57374    1.000
    C33      C        0.68370    0.40250    0.57184    1.000
    C34      C        0.74050    0.45030    0.62371    1.000
    H21      H        0.95760    0.28400    0.79040    1.000
    C35      C        0.91870    0.37350    0.78422    1.000
    H22      H        0.87160    0.45310    0.76640    1.000
    H23      H        0.98360    0.08390    0.54440    1.000
    C36      C        0.97090    0.16380    0.51326    1.000
    H24      H        0.94300    0.24840    0.49030    1.000
    H25      H        0.55440    0.19420    0.75420    1.000
    C37      C        0.52750    0.28370    0.73957    1.000
    H26      H        0.51940    0.37280    0.71890    1.000
    H27      H        0.56890    0.05160    0.52330    1.000
    C38      C        0.54570    0.13580    0.50542    1.000
    H28      H        0.53470    0.23230    0.49780    1.000
    C39      C        0.04540    0.88090    0.68040    1.000
    N6       N        0.78693    0.47422    0.55648    1.000
    H29      H        0.79310    0.37740    0.55480    1.000
    H30      H        0.83050    0.40850    0.58930    1.000
    N7       N        0.67660    0.46660    0.55503    1.000
    H31      H        0.68320    0.36940    0.55260    1.000
    H32      H        0.64890    0.39410    0.58640    1.000
    N8       N        0.73600    0.51210    0.60771    1.000
    H33      H        0.70540    0.44360    0.63830    1.000
    H34      H        0.77820    0.44800    0.64020    1.000
    C40      C        0.94579    0.40025    0.81942    1.000
    C41      C        0.01480    0.14650    0.48673    1.000
    C42      C        0.49490    0.11480    0.48010    1.000
    C43      C        0.00200    0.86780    0.65122    1.000
    C44      C        0.10100    0.84980    0.68302    1.000
    Zn5      Zn       0.86371    0.48381    0.52824    1.000
    C45      C        0.72860    0.47740    0.53388    1.000
    C46      C        0.78590    0.52330    0.58599    1.000
    C47      C        0.67950    0.51360    0.58370    1.000
    C48      C        0.91210    0.43770    0.84116    1.000
    C49      C        0.00557    0.38650    0.83137    1.000
    C50      C        0.01930    0.08390    0.47377    1.000
    C51      C        0.05340    0.19240    0.47429    1.000
    C52      C        0.50470    0.07650    0.45120    1.000
    C53      C        0.43600    0.14120    0.48360    1.000
    H35      H        0.96530    0.89180    0.64770    1.000
    C54      C        0.01510    0.81770    0.62756    1.000
    C55      C        0.11340    0.80330    0.65784    1.000
    H36      H        0.13080    0.86020    0.70210    1.000
    O16      O        0.81815    0.55529    0.48767    1.000
    O17      O        0.91514    0.55306    0.50529    1.000
    O18      O        0.91832    0.46462    0.57191    1.000
    O19      O        0.84663    0.41110    0.49255    1.000
    H37      H        0.72460    0.52030    0.52220    1.000
    H38      H        0.72850    0.44460    0.51450    1.000
    H39      H        0.82470    0.52150    0.60150    1.000
    H40      H        0.78210    0.56680    0.57520    1.000
    H41      H        0.64470    0.50660    0.59850    1.000
    H42      H        0.67490    0.55700    0.57280    1.000
    H43      H        0.87110    0.44840    0.83320    1.000
    C56      C        0.93698    0.46000    0.87441    1.000
    C57      C        0.03112    0.40960    0.86435    1.000
    H44      H        0.02950    0.36090    0.81680    1.000
    H45      H        0.99330    0.05150    0.48190    1.000
    C58      C        0.06080    0.06830    0.44945    1.000
    C59      C        0.09590    0.17740    0.44972    1.000
    H46      H        0.05090    0.23550    0.48270    1.000
    H47      H        0.54450    0.06010    0.44910    1.000
    C60      C        0.45980    0.06130    0.42560    1.000
    C61      C        0.38860    0.12530    0.45750    1.000
    H48      H        0.42900    0.16900    0.50320    1.000
    H49      H        0.98510    0.80560    0.60890    1.000
    C62      C        0.06960    0.78580    0.63060    1.000
    H50      H        0.15230    0.78330    0.65930    1.000
    C63      C        0.87050    0.57490    0.48419    1.000
    H51      H        0.91270    0.48520    0.88900    1.000
    C64      C        0.99689    0.44607    0.88673    1.000
    H52      H        0.07260    0.40040    0.87180    1.000
    H53      H        0.06310    0.02510    0.44120    1.000
    C65      C        0.09860    0.11320    0.43690    1.000
    H54      H        0.12240    0.20950    0.44170    1.000
    H55      H        0.46970    0.03620    0.40540    1.000
    C66      C        0.40370    0.07940    0.42730    1.000
    H56      H        0.34880    0.14240    0.45850    1.000
    C67      C        0.08130    0.73600    0.60293    1.000
    C68      C        0.88340    0.62350    0.45618    1.000
    O20      O        0.01108    0.48997    0.55527    1.000
    O21      O        0.05256    0.57997    0.50293    1.000
    C69      C        0.02398    0.46863    0.92267    1.000
    C70      C        0.14280    0.09500    0.40958    1.000
    C71      C        0.35250    0.06640    0.39890    1.000
    C72      C        0.13740    0.72900    0.58894    1.000
    C73      C        0.03340    0.69730    0.58972    1.000
    C74      C        0.84110    0.63470    0.42737    1.000
    C75      C        0.93860    0.65660    0.45837    1.000
    O22      O        0.14595    0.04020    0.39922    1.000
    O23      O        0.36010    0.04040    0.37302    1.000
    H57      H        0.17070    0.75490    0.59810    1.000
    C76      C        0.14530    0.68530    0.56219    1.000
    C77      C        0.04110    0.65210    0.56328    1.000
    H58      H        0.99470    0.70190    0.59900    1.000
    H59      H        0.80300    0.61300    0.42570    1.000
    C78      C        0.85460    0.67800    0.40083    1.000
    C79      C        0.95100    0.69930    0.43178    1.000
    H60      H        0.96780    0.64940    0.47830    1.000
    H61      H        0.18380    0.68150    0.55260    1.000
    C80      C        0.09710    0.64640    0.54898    1.000
    H62      H        0.00820    0.62490    0.55490    1.000
    H63      H        0.82510    0.68590    0.38110    1.000
    C81      C        0.90860    0.70950    0.40210    1.000
    H64      H        0.98860    0.72200    0.43350    1.000
    C82      C        0.10180    0.60090    0.51831    1.000
    C83      C        0.92418    0.75580    0.37328    1.000
    C84      C        0.87840    0.78970    0.35276    1.000
    C85      C        0.98459    0.76670    0.36660    1.000
    H65      H        0.83680    0.78260    0.35660    1.000
    C86      C        0.89374    0.83370    0.32691    1.000
    C87      C        0.99922    0.81020    0.34104    1.000
    H66      H        0.01610    0.74360    0.38000    1.000
    H67      H        0.86250    0.85660    0.31320    1.000
    C88      C        0.95404    0.84460    0.32090    1.000
    H68      H        0.04080    0.81710    0.33700    1.000
    C89      C        0.96994    0.89393    0.29449    1.000
    C90      C        0.49480    0.12480    0.47790    1.000
    C91      C        0.44940    0.08140    0.48480    1.000
    H69      H        0.45350    0.05760    0.50680    1.000
    C92      C        0.39780    0.07150    0.46080    1.000
    H70      H        0.36640    0.04380    0.46760    1.000
    C93      C        0.39180    0.09890    0.42950    1.000
    C94      C        0.43430    0.14870    0.41870    1.000
    H71      H        0.42730    0.17260    0.39680    1.000
    C95      C        0.48830    0.15850    0.44410    1.000
    H72      H        0.51920    0.18760    0.43810    1.000
    C96      C        0.33710    0.09080    0.40410    1.000
    O24      O        0.29840    0.05400    0.40880    1.000
    O25      O        0.32260    0.13060    0.37650    1.000
    O26      O        0.73840    0.82620    0.66100    1.000
    Zn6      Zn       0.22834    0.17991    0.85110    1.000
    N9       N        0.22067    0.09145    0.82528    1.000
    O27      O        0.17097    0.23243    0.81560    1.000
    O28      O        0.16228    0.17308    0.88466    1.000
    O29      O        0.29687    0.21707    0.82628    1.000
    O30      O        0.28993    0.15567    0.89353    1.000
    C97      C        0.15881    0.08606    0.80767    1.000
    C98      C        0.23189    0.03724    0.85168    1.000
    C99      C        0.26506    0.08422    0.79676    1.000
    C100     C        0.16429    0.29160    0.81487    1.000
    C101     C        0.15406    0.21560    0.90829    1.000
    C102     C        0.32308    0.27070    0.82622    1.000
    C103     C        0.31505    0.19700    0.91317    1.000
    N10      N        0.14926    0.02425    0.78873    1.000
    H73      H        0.15150    0.12170    0.79010    1.000
    H74      H        0.12910    0.09020    0.82610    1.000
    N11      N        0.22268    0.97427    0.83295    1.000
    H75      H        0.27410    0.03990    0.86310    1.000
    H76      H        0.20360    0.04090    0.87100    1.000
    N12      N        0.25668    0.02231    0.77818    1.000
    H77      H        0.25890    0.11960    0.77890    1.000
    H78      H        0.30720    0.08720    0.80820    1.000
    O31      O        0.18214    0.32997    0.83959    1.000
    C104     C        0.13325    0.32052    0.78107    1.000
    O32      O        0.17849    0.26925    0.91051    1.000
    C105     C        0.11022    0.19789    0.93548    1.000
    O33      O        0.30945    0.31808    0.84412    1.000
    C106     C        0.37423    0.27720    0.80267    1.000
    O34      O        0.30518    0.25610    0.91120    1.000
    C107     C        0.36340    0.17490    0.94199    1.000
    Zn7      Zn       0.06097    0.01971    0.76539    1.000
    C108     C        0.16010    0.97100    0.81518    1.000
    C109     C        0.19454    0.01793    0.76076    1.000
    Zn8      Zn       0.23476    0.89764    0.86943    1.000
    C110     C        0.26680    0.97042    0.80392    1.000
    Zn9      Zn       0.24473    0.30814    0.88062    1.000
    C111     C        0.09541    0.28360    0.75709    1.000
    C112     C        0.14330    0.38500    0.77212    1.000
    C113     C        0.07790    0.14070    0.93219    1.000
    C114     C        0.10125    0.23710    0.96459    1.000
    C115     C        0.38900    0.22620    0.78138    1.000
    C116     C        0.40770    0.33150    0.80144    1.000
    C117     C        0.37720    0.11430    0.94804    1.000
    C118     C        0.39490    0.21990    0.96299    1.000
    O35      O        0.01886    0.96157    0.79899    1.000
    O36      O        0.07106    0.94298    0.73284    1.000
    O37      O        0.07371    0.07798    0.72336    1.000
    O38      O        0.02601    0.09534    0.79129    1.000
    H79      H        0.13040    0.97390    0.83370    1.000
    H80      H        0.15400    0.92920    0.80260    1.000
    H81      H        0.18890    0.97600    0.74820    1.000
    H82      H        0.18780    0.05250    0.74250    1.000
    O39      O        0.20090    0.83730    0.83024    1.000
    O40      O        0.17500    0.86120    0.89863    1.000
    O41      O        0.29890    0.90650    0.90720    1.000
    H83      H        0.30910    0.97270    0.81530    1.000
    H84      H        0.26170    0.92870    0.79110    1.000
    N13      N        0.25854    0.39703    0.90451    1.000
    H85      H        0.08770    0.24000    0.76280    1.000
    C119     C        0.06900    0.30950    0.72520    1.000
    C120     C        0.11910    0.41010    0.73973    1.000
    H86      H        0.16710    0.41170    0.78860    1.000
    H87      H        0.08290    0.11290    0.91230    1.000
    C121     C        0.03780    0.12350    0.95793    1.000
    C122     C        0.06183    0.22050    0.98986    1.000
    H88      H        0.12290    0.27660    0.96720    1.000
    H89      H        0.36540    0.18790    0.78130    1.000
    C123     C        0.43680    0.22980    0.76055    1.000
    C124     C        0.45700    0.33460    0.78097    1.000
    H90      H        0.39720    0.36810    0.81490    1.000
    H91      H        0.35540    0.08200    0.93420    1.000
    C125     C        0.42260    0.09620    0.97392    1.000
    C126     C        0.44190    0.20080    0.98872    1.000
    H92      H        0.38500    0.26420    0.96020    1.000
    C127     C        0.96850    0.93310    0.79365    1.000
    C128     C        0.20819    0.41076    0.92626    1.000
    C129     C        0.31630    0.40250    0.92816    1.000
    C130     C        0.25950    0.45030    0.87629    1.000
    H93      H        0.04240    0.28400    0.70960    1.000
    C131     C        0.08130    0.37350    0.71578    1.000
    H94      H        0.12840    0.45310    0.73360    1.000
    H95      H        0.01640    0.08390    0.95560    1.000
    C132     C        0.02910    0.16380    0.98674    1.000
    H96      H        0.05700    0.24840    0.00970    1.000
    H97      H        0.44560    0.19420    0.74580    1.000
    C133     C        0.47250    0.28370    0.76043    1.000
    H98      H        0.48060    0.37280    0.78110    1.000
    H99      H        0.43110    0.05160    0.97670    1.000
    C134     C        0.45430    0.13580    0.99458    1.000
    H100     H        0.46530    0.23230    0.00220    1.000
    C135     C        0.95460    0.88090    0.81960    1.000
    N14      N        0.21307    0.47422    0.94352    1.000
    H101     H        0.20690    0.37740    0.94520    1.000
    H102     H        0.16950    0.40850    0.91070    1.000
    N15      N        0.32340    0.46660    0.94497    1.000
    H103     H        0.31680    0.36940    0.94740    1.000
    H104     H        0.35110    0.39410    0.91360    1.000
    N16      N        0.26400    0.51210    0.89229    1.000
    H105     H        0.29460    0.44360    0.86170    1.000
    H106     H        0.22180    0.44800    0.85980    1.000
    C136     C        0.05421    0.40025    0.68058    1.000
    C137     C        0.98520    0.14650    0.01327    1.000
    C138     C        0.50510    0.11480    0.01990    1.000
    C139     C        0.99800    0.86780    0.84878    1.000
    C140     C        0.89900    0.84980    0.81698    1.000
    Zn10     Zn       0.13629    0.48381    0.97176    1.000
    C141     C        0.27140    0.47740    0.96612    1.000
    C142     C        0.21410    0.52330    0.91401    1.000
    C143     C        0.32050    0.51360    0.91630    1.000
    C144     C        0.08790    0.43770    0.65884    1.000
    C145     C        0.99443    0.38650    0.66863    1.000
    C146     C        0.98070    0.08390    0.02623    1.000
    C147     C        0.94660    0.19240    0.02571    1.000
    C148     C        0.49530    0.07650    0.04880    1.000
    C149     C        0.56400    0.14120    0.01640    1.000
    H107     H        0.03470    0.89180    0.85230    1.000
    C150     C        0.98490    0.81770    0.87244    1.000
    C151     C        0.88660    0.80330    0.84216    1.000
    H108     H        0.86920    0.86020    0.79790    1.000
    O42      O        0.18185    0.55529    0.01233    1.000
    O43      O        0.08486    0.55306    0.99471    1.000
    O44      O        0.08168    0.46462    0.92809    1.000
    O45      O        0.15337    0.41110    0.00745    1.000
    H109     H        0.27540    0.52030    0.97780    1.000
    H110     H        0.27150    0.44460    0.98550    1.000
    H111     H        0.17530    0.52150    0.89850    1.000
    H112     H        0.21790    0.56680    0.92480    1.000
    H113     H        0.35530    0.50660    0.90150    1.000
    H114     H        0.32510    0.55700    0.92720    1.000
    H115     H        0.12890    0.44840    0.66680    1.000
    C152     C        0.06302    0.46000    0.62559    1.000
    C153     C        0.96888    0.40960    0.63565    1.000
    H116     H        0.97050    0.36090    0.68320    1.000
    H117     H        0.00670    0.05150    0.01810    1.000
    C154     C        0.93920    0.06830    0.05055    1.000
    C155     C        0.90410    0.17740    0.05028    1.000
    H118     H        0.94910    0.23550    0.01730    1.000
    H119     H        0.45550    0.06010    0.05090    1.000
    C156     C        0.54020    0.06130    0.07440    1.000
    C157     C        0.61140    0.12530    0.04250    1.000
    H120     H        0.57100    0.16900    0.99680    1.000
    H121     H        0.01490    0.80560    0.89110    1.000
    C158     C        0.93040    0.78580    0.86940    1.000
    H122     H        0.84770    0.78330    0.84070    1.000
    C159     C        0.12950    0.57490    0.01581    1.000
    H123     H        0.08730    0.48520    0.61100    1.000
    C160     C        0.00311    0.44607    0.61327    1.000
    H124     H        0.92740    0.40040    0.62820    1.000
    H125     H        0.93690    0.02510    0.05880    1.000
    C161     C        0.90140    0.11320    0.06310    1.000
    H126     H        0.87760    0.20950    0.05830    1.000
    H127     H        0.53030    0.03620    0.09460    1.000
    C162     C        0.59630    0.07940    0.07270    1.000
    H128     H        0.65120    0.14240    0.04150    1.000
    C163     C        0.91870    0.73600    0.89707    1.000
    C164     C        0.11660    0.62350    0.04382    1.000
    O46      O        0.98892    0.48997    0.94473    1.000
    O47      O        0.94744    0.57997    0.99707    1.000
    C165     C        0.97602    0.46863    0.57733    1.000
    C166     C        0.85720    0.09500    0.09042    1.000
    C167     C        0.64750    0.06640    0.10110    1.000
    C168     C        0.86260    0.72900    0.91106    1.000
    C169     C        0.96660    0.69730    0.91028    1.000
    C170     C        0.15890    0.63470    0.07263    1.000
    C171     C        0.06140    0.65660    0.04163    1.000
    O48      O        0.85405    0.04020    0.10078    1.000
    O49      O        0.63990    0.04040    0.12698    1.000
    H129     H        0.82930    0.75490    0.90190    1.000
    C172     C        0.85470    0.68530    0.93781    1.000
    C173     C        0.95890    0.65210    0.93672    1.000
    H130     H        0.00530    0.70190    0.90100    1.000
    H131     H        0.19700    0.61300    0.07430    1.000
    C174     C        0.14540    0.67800    0.09917    1.000
    C175     C        0.04900    0.69930    0.06822    1.000
    H132     H        0.03220    0.64940    0.02170    1.000
    H133     H        0.81620    0.68150    0.94740    1.000
    C176     C        0.90290    0.64640    0.95102    1.000
    H134     H        0.99180    0.62490    0.94510    1.000
    H135     H        0.17490    0.68590    0.11890    1.000
    C177     C        0.09140    0.70950    0.09790    1.000
    H136     H        0.01140    0.72200    0.06650    1.000
    C178     C        0.89820    0.60090    0.98169    1.000
    C179     C        0.07582    0.75580    0.12672    1.000
    C180     C        0.12160    0.78970    0.14724    1.000
    C181     C        0.01541    0.76670    0.13340    1.000
    H137     H        0.16320    0.78260    0.14340    1.000
    C182     C        0.10626    0.83370    0.17309    1.000
    C183     C        0.00078    0.81020    0.15896    1.000
    H138     H        0.98390    0.74360    0.12000    1.000
    H139     H        0.13750    0.85660    0.18680    1.000
    C184     C        0.04596    0.84460    0.17910    1.000
    H140     H        0.95920    0.81710    0.16300    1.000
    C185     C        0.03006    0.89393    0.20551    1.000
    C186     C        0.50520    0.12480    0.02210    1.000
    C187     C        0.55060    0.08140    0.01520    1.000
    H141     H        0.54650    0.05760    0.99320    1.000
    C188     C        0.60220    0.07150    0.03920    1.000
    H142     H        0.63360    0.04380    0.03240    1.000
    C189     C        0.60820    0.09890    0.07050    1.000
    C190     C        0.56570    0.14870    0.08130    1.000
    H143     H        0.57270    0.17260    0.10320    1.000
    C191     C        0.51170    0.15850    0.05590    1.000
    H144     H        0.48080    0.18760    0.06190    1.000
    C192     C        0.66290    0.09080    0.09590    1.000
    O50      O        0.70160    0.05400    0.09120    1.000
    O51      O        0.67740    0.13060    0.12350    1.000
    O52      O        0.26160    0.82620    0.83900    1.000
    Zn11     Zn       0.22834    0.82009    0.35110    1.000
    N17      N        0.22067    0.90855    0.32528    1.000
    O53      O        0.17097    0.76757    0.31560    1.000
    O54      O        0.16228    0.82692    0.38466    1.000
    O55      O        0.29687    0.78293    0.32628    1.000
    O56      O        0.28993    0.84433    0.39353    1.000
    C193     C        0.15881    0.91394    0.30767    1.000
    C194     C        0.23189    0.96276    0.35168    1.000
    C195     C        0.26506    0.91578    0.29676    1.000
    C196     C        0.16429    0.70840    0.31487    1.000
    C197     C        0.15406    0.78440    0.40829    1.000
    C198     C        0.32308    0.72930    0.32622    1.000
    C199     C        0.31505    0.80300    0.41317    1.000
    N18      N        0.14926    0.97575    0.28873    1.000
    H145     H        0.15150    0.87830    0.29010    1.000
    H146     H        0.12910    0.90980    0.32610    1.000
    N19      N        0.22268    0.02573    0.33295    1.000
    H147     H        0.27410    0.96010    0.36310    1.000
    H148     H        0.20360    0.95910    0.37100    1.000
    N20      N        0.25668    0.97769    0.27818    1.000
    H149     H        0.25890    0.88040    0.27890    1.000
    H150     H        0.30720    0.91280    0.30820    1.000
    O57      O        0.18214    0.67003    0.33959    1.000
    C200     C        0.13325    0.67948    0.28107    1.000
    O58      O        0.17849    0.73075    0.41051    1.000
    C201     C        0.11022    0.80211    0.43548    1.000
    O59      O        0.30945    0.68192    0.34412    1.000
    C202     C        0.37423    0.72280    0.30267    1.000
    O60      O        0.30518    0.74390    0.41120    1.000
    C203     C        0.36340    0.82510    0.44199    1.000
    Zn12     Zn       0.06097    0.98029    0.26539    1.000
    C204     C        0.16010    0.02900    0.31518    1.000
    C205     C        0.19454    0.98207    0.26076    1.000
    Zn13     Zn       0.23476    0.10236    0.36943    1.000
    C206     C        0.26680    0.02958    0.30392    1.000
    Zn14     Zn       0.24473    0.69186    0.38062    1.000
    C207     C        0.09541    0.71640    0.25709    1.000
    C208     C        0.14330    0.61500    0.27212    1.000
    C209     C        0.07790    0.85930    0.43219    1.000
    C210     C        0.10125    0.76290    0.46459    1.000
    C211     C        0.38900    0.77380    0.28138    1.000
    C212     C        0.40770    0.66850    0.30144    1.000
    C213     C        0.37720    0.88570    0.44804    1.000
    C214     C        0.39490    0.78010    0.46299    1.000
    O61      O        0.01886    0.03843    0.29899    1.000
    O62      O        0.07106    0.05702    0.23284    1.000
    O63      O        0.07371    0.92202    0.22336    1.000
    O64      O        0.02601    0.90466    0.29129    1.000
    H151     H        0.13040    0.02610    0.33370    1.000
    H152     H        0.15400    0.07080    0.30260    1.000
    H153     H        0.18890    0.02400    0.24820    1.000
    H154     H        0.18780    0.94750    0.24250    1.000
    O65      O        0.20090    0.16270    0.33024    1.000
    O66      O        0.17500    0.13880    0.39863    1.000
    O67      O        0.29890    0.09350    0.40720    1.000
    H155     H        0.30910    0.02730    0.31530    1.000
    H156     H        0.26170    0.07130    0.29110    1.000
    N21      N        0.25854    0.60297    0.40451    1.000
    H157     H        0.08770    0.76000    0.26280    1.000
    C215     C        0.06900    0.69050    0.22520    1.000
    C216     C        0.11910    0.58990    0.23973    1.000
    H158     H        0.16710    0.58830    0.28860    1.000
    H159     H        0.08290    0.88710    0.41230    1.000
    C217     C        0.03780    0.87650    0.45793    1.000
    C218     C        0.06183    0.77950    0.48986    1.000
    H160     H        0.12290    0.72340    0.46720    1.000
    H161     H        0.36540    0.81210    0.28130    1.000
    C219     C        0.43680    0.77020    0.26055    1.000
    C220     C        0.45700    0.66540    0.28097    1.000
    H162     H        0.39720    0.63190    0.31490    1.000
    H163     H        0.35540    0.91800    0.43420    1.000
    C221     C        0.42260    0.90380    0.47392    1.000
    C222     C        0.44190    0.79920    0.48872    1.000
    H164     H        0.38500    0.73580    0.46020    1.000
    C223     C        0.96850    0.06690    0.29365    1.000
    C224     C        0.20819    0.58924    0.42626    1.000
    C225     C        0.31630    0.59750    0.42816    1.000
    C226     C        0.25950    0.54970    0.37629    1.000
    H165     H        0.04240    0.71600    0.20960    1.000
    C227     C        0.08130    0.62650    0.21578    1.000
    H166     H        0.12840    0.54690    0.23360    1.000
    H167     H        0.01640    0.91610    0.45560    1.000
    C228     C        0.02910    0.83620    0.48674    1.000
    H168     H        0.05700    0.75160    0.50970    1.000
    H169     H        0.44560    0.80580    0.24580    1.000
    C229     C        0.47250    0.71630    0.26043    1.000
    H170     H        0.48060    0.62720    0.28110    1.000
    H171     H        0.43110    0.94840    0.47670    1.000
    C230     C        0.45430    0.86420    0.49458    1.000
    H172     H        0.46530    0.76770    0.50220    1.000
    C231     C        0.95460    0.11910    0.31960    1.000
    N22      N        0.21307    0.52578    0.44352    1.000
    H173     H        0.20690    0.62260    0.44520    1.000
    H174     H        0.16950    0.59150    0.41070    1.000
    N23      N        0.32340    0.53340    0.44497    1.000
    H175     H        0.31680    0.63060    0.44740    1.000
    H176     H        0.35110    0.60590    0.41360    1.000
    N24      N        0.26400    0.48790    0.39229    1.000
    H177     H        0.29460    0.55640    0.36170    1.000
    H178     H        0.22180    0.55200    0.35980    1.000
    C232     C        0.05421    0.59975    0.18058    1.000
    C233     C        0.98520    0.85350    0.51327    1.000
    C234     C        0.50510    0.88520    0.51990    1.000
    C235     C        0.99800    0.13220    0.34878    1.000
    C236     C        0.89900    0.15020    0.31698    1.000
    Zn15     Zn       0.13629    0.51619    0.47176    1.000
    C237     C        0.27140    0.52260    0.46612    1.000
    C238     C        0.21410    0.47670    0.41401    1.000
    C239     C        0.32050    0.48640    0.41630    1.000
    C240     C        0.08790    0.56230    0.15884    1.000
    C241     C        0.99443    0.61350    0.16863    1.000
    C242     C        0.98070    0.91610    0.52623    1.000
    C243     C        0.94660    0.80760    0.52571    1.000
    C244     C        0.49530    0.92350    0.54880    1.000
    C245     C        0.56400    0.85880    0.51640    1.000
    H179     H        0.03470    0.10820    0.35230    1.000
    C246     C        0.98490    0.18230    0.37244    1.000
    C247     C        0.88660    0.19670    0.34216    1.000
    H180     H        0.86920    0.13980    0.29790    1.000
    O68      O        0.18185    0.44471    0.51233    1.000
    O69      O        0.08486    0.44694    0.49471    1.000
    O70      O        0.08168    0.53538    0.42809    1.000
    O71      O        0.15337    0.58890    0.50745    1.000
    H181     H        0.27540    0.47970    0.47780    1.000
    H182     H        0.27150    0.55540    0.48550    1.000
    H183     H        0.17530    0.47850    0.39850    1.000
    H184     H        0.21790    0.43320    0.42480    1.000
    H185     H        0.35530    0.49340    0.40150    1.000
    H186     H        0.32510    0.44300    0.42720    1.000
    H187     H        0.12890    0.55160    0.16680    1.000
    C248     C        0.06302    0.54000    0.12559    1.000
    C249     C        0.96888    0.59040    0.13565    1.000
    H188     H        0.97050    0.63910    0.18320    1.000
    H189     H        0.00670    0.94850    0.51810    1.000
    C250     C        0.93920    0.93170    0.55055    1.000
    C251     C        0.90410    0.82260    0.55028    1.000
    H190     H        0.94910    0.76450    0.51730    1.000
    H191     H        0.45550    0.93990    0.55090    1.000
    C252     C        0.54020    0.93870    0.57440    1.000
    C253     C        0.61140    0.87470    0.54250    1.000
    H192     H        0.57100    0.83100    0.49680    1.000
    H193     H        0.01490    0.19440    0.39110    1.000
    C254     C        0.93040    0.21420    0.36940    1.000
    H194     H        0.84770    0.21670    0.34070    1.000
    C255     C        0.12950    0.42510    0.51581    1.000
    H195     H        0.08730    0.51480    0.11100    1.000
    C256     C        0.00311    0.55393    0.11327    1.000
    H196     H        0.92740    0.59960    0.12820    1.000
    H197     H        0.93690    0.97490    0.55880    1.000
    C257     C        0.90140    0.88680    0.56310    1.000
    H198     H        0.87760    0.79050    0.55830    1.000
    H199     H        0.53030    0.96380    0.59460    1.000
    C258     C        0.59630    0.92060    0.57270    1.000
    H200     H        0.65120    0.85760    0.54150    1.000
    C259     C        0.91870    0.26400    0.39707    1.000
    C260     C        0.11660    0.37650    0.54382    1.000
    O72      O        0.98892    0.51003    0.44473    1.000
    O73      O        0.94744    0.42003    0.49707    1.000
    C261     C        0.97602    0.53137    0.07733    1.000
    C262     C        0.85720    0.90500    0.59042    1.000
    C263     C        0.64750    0.93360    0.60110    1.000
    C264     C        0.86260    0.27100    0.41106    1.000
    C265     C        0.96660    0.30270    0.41028    1.000
    C266     C        0.15890    0.36530    0.57263    1.000
    C267     C        0.06140    0.34340    0.54163    1.000
    O74      O        0.85405    0.95980    0.60078    1.000
    O75      O        0.63990    0.95960    0.62698    1.000
    H201     H        0.82930    0.24510    0.40190    1.000
    C268     C        0.85470    0.31470    0.43781    1.000
    C269     C        0.95890    0.34790    0.43672    1.000
    H202     H        0.00530    0.29810    0.40100    1.000
    H203     H        0.19700    0.38700    0.57430    1.000
    C270     C        0.14540    0.32200    0.59917    1.000
    C271     C        0.04900    0.30070    0.56822    1.000
    H204     H        0.03220    0.35060    0.52170    1.000
    H205     H        0.81620    0.31850    0.44740    1.000
    C272     C        0.90290    0.35360    0.45102    1.000
    H206     H        0.99180    0.37510    0.44510    1.000
    H207     H        0.17490    0.31410    0.61890    1.000
    C273     C        0.09140    0.29050    0.59790    1.000
    H208     H        0.01140    0.27800    0.56650    1.000
    C274     C        0.89820    0.39910    0.48169    1.000
    C275     C        0.07582    0.24420    0.62672    1.000
    C276     C        0.12160    0.21030    0.64724    1.000
    C277     C        0.01541    0.23330    0.63340    1.000
    H209     H        0.16320    0.21740    0.64340    1.000
    C278     C        0.10626    0.16630    0.67309    1.000
    C279     C        0.00078    0.18980    0.65896    1.000
    H210     H        0.98390    0.25640    0.62000    1.000
    H211     H        0.13750    0.14340    0.68680    1.000
    C280     C        0.04596    0.15540    0.67910    1.000
    H212     H        0.95920    0.18290    0.66300    1.000
    C281     C        0.03006    0.10607    0.70551    1.000
    C282     C        0.50520    0.87520    0.52210    1.000
    C283     C        0.55060    0.91860    0.51520    1.000
    H213     H        0.54650    0.94240    0.49320    1.000
    C284     C        0.60220    0.92850    0.53920    1.000
    H214     H        0.63360    0.95620    0.53240    1.000
    C285     C        0.60820    0.90110    0.57050    1.000
    C286     C        0.56570    0.85130    0.58130    1.000
    H215     H        0.57270    0.82740    0.60320    1.000
    C287     C        0.51170    0.84150    0.55590    1.000
    H216     H        0.48080    0.81240    0.56190    1.000
    C288     C        0.66290    0.90920    0.59590    1.000
    O76      O        0.70160    0.94600    0.59120    1.000
    O77      O        0.67740    0.86940    0.62350    1.000
    O78      O        0.26160    0.17380    0.33900    1.000
    Zn16     Zn       0.77166    0.82009    0.14890    1.000
    N25      N        0.77933    0.90855    0.17472    1.000
    O79      O        0.82903    0.76757    0.18440    1.000
    O80      O        0.83772    0.82692    0.11534    1.000
    O81      O        0.70313    0.78293    0.17372    1.000
    O82      O        0.71007    0.84433    0.10647    1.000
    C289     C        0.84119    0.91394    0.19233    1.000
    C290     C        0.76811    0.96276    0.14832    1.000
    C291     C        0.73494    0.91578    0.20324    1.000
    C292     C        0.83571    0.70840    0.18513    1.000
    C293     C        0.84594    0.78440    0.09171    1.000
    C294     C        0.67692    0.72930    0.17378    1.000
    C295     C        0.68495    0.80300    0.08683    1.000
    N26      N        0.85074    0.97575    0.21127    1.000
    H217     H        0.84850    0.87830    0.20990    1.000
    H218     H        0.87090    0.90980    0.17390    1.000
    N27      N        0.77732    0.02573    0.16705    1.000
    H219     H        0.72590    0.96010    0.13690    1.000
    H220     H        0.79640    0.95910    0.12900    1.000
    N28      N        0.74332    0.97769    0.22182    1.000
    H221     H        0.74110    0.88040    0.22110    1.000
    H222     H        0.69280    0.91280    0.19180    1.000
    O83      O        0.81786    0.67003    0.16041    1.000
    C296     C        0.86675    0.67948    0.21893    1.000
    O84      O        0.82151    0.73075    0.08949    1.000
    C297     C        0.88978    0.80211    0.06452    1.000
    O85      O        0.69055    0.68192    0.15588    1.000
    C298     C        0.62577    0.72280    0.19733    1.000
    O86      O        0.69482    0.74390    0.08880    1.000
    C299     C        0.63660    0.82510    0.05801    1.000
    Zn17     Zn       0.93903    0.98029    0.23461    1.000
    C300     C        0.83990    0.02900    0.18482    1.000
    C301     C        0.80546    0.98207    0.23924    1.000
    Zn18     Zn       0.76524    0.10236    0.13057    1.000
    C302     C        0.73320    0.02958    0.19608    1.000
    Zn19     Zn       0.75526    0.69186    0.11938    1.000
    C303     C        0.90459    0.71640    0.24291    1.000
    C304     C        0.85670    0.61500    0.22788    1.000
    C305     C        0.92210    0.85930    0.06781    1.000
    C306     C        0.89875    0.76290    0.03541    1.000
    C307     C        0.61100    0.77380    0.21862    1.000
    C308     C        0.59230    0.66850    0.19856    1.000
    C309     C        0.62280    0.88570    0.05196    1.000
    C310     C        0.60510    0.78010    0.03701    1.000
    O87      O        0.98114    0.03843    0.20101    1.000
    O88      O        0.92894    0.05702    0.26716    1.000
    O89      O        0.92629    0.92202    0.27664    1.000
    O90      O        0.97399    0.90466    0.20871    1.000
    H223     H        0.86960    0.02610    0.16630    1.000
    H224     H        0.84600    0.07080    0.19740    1.000
    H225     H        0.81110    0.02400    0.25180    1.000
    H226     H        0.81220    0.94750    0.25750    1.000
    O91      O        0.79910    0.16270    0.16976    1.000
    O92      O        0.82500    0.13880    0.10137    1.000
    O93      O        0.70110    0.09350    0.09280    1.000
    H227     H        0.69090    0.02730    0.18470    1.000
    H228     H        0.73830    0.07130    0.20890    1.000
    N29      N        0.74146    0.60297    0.09549    1.000
    H229     H        0.91230    0.76000    0.23720    1.000
    C311     C        0.93100    0.69050    0.27480    1.000
    C312     C        0.88090    0.58990    0.26027    1.000
    H230     H        0.83290    0.58830    0.21140    1.000
    H231     H        0.91710    0.88710    0.08770    1.000
    C313     C        0.96220    0.87650    0.04207    1.000
    C314     C        0.93817    0.77950    0.01014    1.000
    H232     H        0.87710    0.72340    0.03280    1.000
    H233     H        0.63460    0.81210    0.21870    1.000
    C315     C        0.56320    0.77020    0.23945    1.000
    C316     C        0.54300    0.66540    0.21903    1.000
    H234     H        0.60280    0.63190    0.18510    1.000
    H235     H        0.64460    0.91800    0.06580    1.000
    C317     C        0.57740    0.90380    0.02608    1.000
    C318     C        0.55810    0.79920    0.01128    1.000
    H236     H        0.61500    0.73580    0.03980    1.000
    C319     C        0.03150    0.06690    0.20635    1.000
    C320     C        0.79181    0.58924    0.07374    1.000
    C321     C        0.68370    0.59750    0.07184    1.000
    C322     C        0.74050    0.54970    0.12371    1.000
    H237     H        0.95760    0.71600    0.29040    1.000
    C323     C        0.91870    0.62650    0.28422    1.000
    H238     H        0.87160    0.54690    0.26640    1.000
    H239     H        0.98360    0.91610    0.04440    1.000
    C324     C        0.97090    0.83620    0.01326    1.000
    H240     H        0.94300    0.75160    0.99030    1.000
    H241     H        0.55440    0.80580    0.25420    1.000
    C325     C        0.52750    0.71630    0.23957    1.000
    H242     H        0.51940    0.62720    0.21890    1.000
    H243     H        0.56890    0.94840    0.02330    1.000
    C326     C        0.54570    0.86420    0.00542    1.000
    H244     H        0.53470    0.76770    0.99780    1.000
    C327     C        0.04540    0.11910    0.18040    1.000
    N30      N        0.78693    0.52578    0.05648    1.000
    H245     H        0.79310    0.62260    0.05480    1.000
    H246     H        0.83050    0.59150    0.08930    1.000
    N31      N        0.67660    0.53340    0.05503    1.000
    H247     H        0.68320    0.63060    0.05260    1.000
    H248     H        0.64890    0.60590    0.08640    1.000
    N32      N        0.73600    0.48790    0.10771    1.000
    H249     H        0.70540    0.55640    0.13830    1.000
    H250     H        0.77820    0.55200    0.14020    1.000
    C328     C        0.94579    0.59975    0.31942    1.000
    C329     C        0.01480    0.85350    0.98673    1.000
    C330     C        0.49490    0.88520    0.98010    1.000
    C331     C        0.00200    0.13220    0.15122    1.000
    C332     C        0.10100    0.15020    0.18302    1.000
    Zn20     Zn       0.86371    0.51619    0.02824    1.000
    C333     C        0.72860    0.52260    0.03388    1.000
    C334     C        0.78590    0.47670    0.08599    1.000
    C335     C        0.67950    0.48640    0.08370    1.000
    C336     C        0.91210    0.56230    0.34116    1.000
    C337     C        0.00557    0.61350    0.33137    1.000
    C338     C        0.01930    0.91610    0.97377    1.000
    C339     C        0.05340    0.80760    0.97429    1.000
    C340     C        0.50470    0.92350    0.95120    1.000
    C341     C        0.43600    0.85880    0.98360    1.000
    H251     H        0.96530    0.10820    0.14770    1.000
    C342     C        0.01510    0.18230    0.12756    1.000
    C343     C        0.11340    0.19670    0.15784    1.000
    H252     H        0.13080    0.13980    0.20210    1.000
    O94      O        0.81815    0.44471    0.98767    1.000
    O95      O        0.91514    0.44694    0.00529    1.000
    O96      O        0.91832    0.53538    0.07191    1.000
    O97      O        0.84663    0.58890    0.99255    1.000
    H253     H        0.72460    0.47970    0.02220    1.000
    H254     H        0.72850    0.55540    0.01450    1.000
    H255     H        0.82470    0.47850    0.10150    1.000
    H256     H        0.78210    0.43320    0.07520    1.000
    H257     H        0.64470    0.49340    0.09850    1.000
    H258     H        0.67490    0.44300    0.07280    1.000
    H259     H        0.87110    0.55160    0.33320    1.000
    C344     C        0.93698    0.54000    0.37441    1.000
    C345     C        0.03112    0.59040    0.36435    1.000
    H260     H        0.02950    0.63910    0.31680    1.000
    H261     H        0.99330    0.94850    0.98190    1.000
    C346     C        0.06080    0.93170    0.94945    1.000
    C347     C        0.09590    0.82260    0.94972    1.000
    H262     H        0.05090    0.76450    0.98270    1.000
    H263     H        0.54450    0.93990    0.94910    1.000
    C348     C        0.45980    0.93870    0.92560    1.000
    C349     C        0.38860    0.87470    0.95750    1.000
    H264     H        0.42900    0.83100    0.00320    1.000
    H265     H        0.98510    0.19440    0.10890    1.000
    C350     C        0.06960    0.21420    0.13060    1.000
    H266     H        0.15230    0.21670    0.15930    1.000
    C351     C        0.87050    0.42510    0.98419    1.000
    H267     H        0.91270    0.51480    0.38900    1.000
    C352     C        0.99689    0.55393    0.38673    1.000
    H268     H        0.07260    0.59960    0.37180    1.000
    H269     H        0.06310    0.97490    0.94120    1.000
    C353     C        0.09860    0.88680    0.93690    1.000
    H270     H        0.12240    0.79050    0.94170    1.000
    H271     H        0.46970    0.96380    0.90540    1.000
    C354     C        0.40370    0.92060    0.92730    1.000
    H272     H        0.34880    0.85760    0.95850    1.000
    C355     C        0.08130    0.26400    0.10293    1.000
    C356     C        0.88340    0.37650    0.95618    1.000
    O98      O        0.01108    0.51003    0.05527    1.000
    O99      O        0.05256    0.42003    0.00293    1.000
    C357     C        0.02398    0.53137    0.42267    1.000
    C358     C        0.14280    0.90500    0.90958    1.000
    C359     C        0.35250    0.93360    0.89890    1.000
    C360     C        0.13740    0.27100    0.08894    1.000
    C361     C        0.03340    0.30270    0.08972    1.000
    C362     C        0.84110    0.36530    0.92737    1.000
    C363     C        0.93860    0.34340    0.95837    1.000
    O100     O        0.14595    0.95980    0.89922    1.000
    O101     O        0.36010    0.95960    0.87302    1.000
    H273     H        0.17070    0.24510    0.09810    1.000
    C364     C        0.14530    0.31470    0.06219    1.000
    C365     C        0.04110    0.34790    0.06328    1.000
    H274     H        0.99470    0.29810    0.09900    1.000
    H275     H        0.80300    0.38700    0.92570    1.000
    C366     C        0.85460    0.32200    0.90083    1.000
    C367     C        0.95100    0.30070    0.93178    1.000
    H276     H        0.96780    0.35060    0.97830    1.000
    H277     H        0.18380    0.31850    0.05260    1.000
    C368     C        0.09710    0.35360    0.04898    1.000
    H278     H        0.00820    0.37510    0.05490    1.000
    H279     H        0.82510    0.31410    0.88110    1.000
    C369     C        0.90860    0.29050    0.90210    1.000
    H280     H        0.98860    0.27800    0.93350    1.000
    C370     C        0.10180    0.39910    0.01831    1.000
    C371     C        0.92418    0.24420    0.87328    1.000
    C372     C        0.87840    0.21030    0.85276    1.000
    C373     C        0.98459    0.23330    0.86660    1.000
    H281     H        0.83680    0.21740    0.85660    1.000
    C374     C        0.89374    0.16630    0.82691    1.000
    C375     C        0.99922    0.18980    0.84104    1.000
    H282     H        0.01610    0.25640    0.88000    1.000
    H283     H        0.86250    0.14340    0.81320    1.000
    C376     C        0.95404    0.15540    0.82090    1.000
    H284     H        0.04080    0.18290    0.83700    1.000
    C377     C        0.96994    0.10607    0.79449    1.000
    C378     C        0.49480    0.87520    0.97790    1.000
    C379     C        0.44940    0.91860    0.98480    1.000
    H285     H        0.45350    0.94240    0.00680    1.000
    C380     C        0.39780    0.92850    0.96080    1.000
    H286     H        0.36640    0.95620    0.96760    1.000
    C381     C        0.39180    0.90110    0.92950    1.000
    C382     C        0.43430    0.85130    0.91870    1.000
    H287     H        0.42730    0.82740    0.89680    1.000
    C383     C        0.48830    0.84150    0.94410    1.000
    H288     H        0.51920    0.81240    0.93810    1.000
    C384     C        0.33710    0.90920    0.90410    1.000
    O102     O        0.29840    0.94600    0.90880    1.000
    O103     O        0.32260    0.86940    0.87650    1.000
    O104     O        0.73840    0.17380    0.16100    1.000
    Zn21     Zn       0.00000    0.50000    0.50000    1.000
    Zn22     Zn       0.00000    0.50000    0.00000    1.000
