# CIF file generated by openbabel 3.1.0, see https://openbabel.org
data_I
_chemical_name_common 'MIHLIZ_clean'
_cell_length_a 9.6357
_cell_length_b 13.9203
_cell_length_c 17.2875
_cell_angle_alpha 98.1574
_cell_angle_beta 90.2489
_cell_angle_gamma 90.8938
_space_group_name_H-M_alt 'P 1'
_space_group_name_Hall 'P 1'
loop_
    _symmetry_equiv_pos_as_xyz
    x,y,z
loop_
    _atom_site_label
    _atom_site_type_symbol
    _atom_site_fract_x
    _atom_site_fract_y
    _atom_site_fract_z
    _atom_site_occupancy
    Pr1      Pr       0.27000    0.39840    0.51308    1.000
    Pr2      Pr       0.73000    0.60160    0.48692    1.000
    H1       H        0.10890    0.26210    0.04240    1.000
    H2       H        0.23350    0.25010    0.91570    1.000
    H3       H        0.53670    0.97500    0.75010    1.000
    H4       H        0.58150    0.80300    0.75840    1.000
    H5       H        0.42700    0.55200    0.94820    1.000
    H6       H        0.25880    0.55630    0.05840    1.000
    H7       H        0.97200    0.83770    0.22780    1.000
    H8       H        0.96560    0.01660    0.23400    1.000
    H9       H        0.34000    0.90450    0.93700    1.000
    H10      H        0.21840    0.91460    0.06090    1.000
    H11      H        0.51650    0.23170    0.88460    1.000
    H12      H        0.54410    0.34910    0.80120    1.000
    H13      H        0.43670    0.32810    0.67890    1.000
    H14      H        0.27820    0.06910    0.72130    1.000
    H15      H        0.21210    0.09680    0.53380    1.000
    H16      H        0.69050    0.64030    0.91540    1.000
    H17      H        0.83040    0.53640    0.83240    1.000
    H18      H        0.76140    0.48680    0.70290    1.000
    H19      H        0.40260    0.63350    0.74330    1.000
    H20      H        0.96060    0.60400    0.05580    1.000
    H21      H        0.80970    0.51470    0.12390    1.000
    H22      H        0.81940    0.53030    0.26020    1.000
    H23      H        0.15850    0.70680    0.25890    1.000
    H24      H        0.89100    0.20730    0.09800    1.000
    H25      H        0.80530    0.33680    0.18330    1.000
    H26      H        0.91050    0.38390    0.30510    1.000
    H27      H        0.18420    0.16550    0.25840    1.000
    H28      H        0.89110    0.73790    0.95760    1.000
    H29      H        0.76650    0.74990    0.08430    1.000
    H30      H        0.46330    0.02500    0.24990    1.000
    H31      H        0.41850    0.19700    0.24160    1.000
    H32      H        0.57300    0.44800    0.05180    1.000
    H33      H        0.74120    0.44370    0.94160    1.000
    H34      H        0.02800    0.16230    0.77220    1.000
    H35      H        0.03440    0.98340    0.76600    1.000
    H36      H        0.66000    0.09550    0.06300    1.000
    H37      H        0.78160    0.08540    0.93910    1.000
    H38      H        0.48350    0.76830    0.11540    1.000
    H39      H        0.45590    0.65090    0.19880    1.000
    H40      H        0.56330    0.67190    0.32110    1.000
    H41      H        0.72180    0.93090    0.27870    1.000
    H42      H        0.78790    0.90320    0.46620    1.000
    H43      H        0.30950    0.35970    0.08460    1.000
    H44      H        0.16960    0.46360    0.16760    1.000
    H45      H        0.23860    0.51320    0.29710    1.000
    H46      H        0.59740    0.36650    0.25670    1.000
    H47      H        0.03940    0.39600    0.94420    1.000
    H48      H        0.19030    0.48530    0.87610    1.000
    H49      H        0.18060    0.46970    0.73980    1.000
    H50      H        0.84150    0.29320    0.74110    1.000
    H51      H        0.10900    0.79270    0.90200    1.000
    H52      H        0.19470    0.66320    0.81670    1.000
    H53      H        0.08950    0.61610    0.69490    1.000
    H54      H        0.81580    0.83450    0.74160    1.000
    C1       C        0.17010    0.11390    0.04430    1.000
    C2       C        0.15640    0.20720    0.01690    1.000
    C3       C        0.22430    0.20090    0.94830    1.000
    C4       C        0.28120    0.10260    0.93400    1.000
    C5       C        0.36060    0.06990    0.86890    1.000
    C6       C        0.41390    0.97570    0.85230    1.000
    C7       C        0.50190    0.93920    0.78890    1.000
    C8       C        0.52700    0.84510    0.79370    1.000
    C9       C        0.45780    0.81940    0.86100    1.000
    C10      C        0.45540    0.72820    0.88600    1.000
    C11      C        0.38300    0.70350    0.95110    1.000
    C12      C        0.37710    0.60670    0.97190    1.000
    C13      C        0.28600    0.60910    0.03230    1.000
    C14      C        0.23940    0.70770    0.04850    1.000
    C15      C        0.14660    0.74040    0.10890    1.000
    C16      C        0.11300    0.83820    0.13250    1.000
    C17      C        0.02090    0.87520    0.19470    1.000
    C18      C        0.01630    0.97330    0.19760    1.000
    C19      C        0.10100    0.99980    0.13620    1.000
    C20      C        0.10990    0.09260    0.11420    1.000
    C21      C        0.39090    0.13980    0.81200    1.000
    C22      C        0.47220    0.22270    0.83480    1.000
    C23      C        0.48900    0.29260    0.78500    1.000
    C24      C        0.42590    0.28000    0.71230    1.000
    C25      C        0.34630    0.19650    0.68810    1.000
    C26      C        0.33080    0.12660    0.73820    1.000
    C27      C        0.27970    0.18300    0.60840    1.000
    C28      C        0.53560    0.65160    0.83680    1.000
    C29      C        0.66130    0.61950    0.86310    1.000
    C30      C        0.74470    0.55740    0.81370    1.000
    C31      C        0.70270    0.52640    0.73760    1.000
    C32      C        0.57360    0.55350    0.71190    1.000
    C33      C        0.49060    0.61550    0.76110    1.000
    C34      C        0.52660    0.51710    0.63000    1.000
    C35      C        0.06970    0.66970    0.15090    1.000
    C36      C        0.96810    0.60900    0.11110    1.000
    C37      C        0.87800    0.55610    0.15170    1.000
    C38      C        0.88620    0.56270    0.23240    1.000
    C39      C        0.99320    0.61720    0.27220    1.000
    C40      C        0.08500    0.67010    0.23150    1.000
    C41      C        0.00860    0.62090    0.35950    1.000
    C42      C        0.04790    0.17350    0.16820    1.000
    C43      C        0.93420    0.22530    0.14760    1.000
    C44      C        0.88320    0.30260    0.19830    1.000
    C45      C        0.94510    0.33030    0.27090    1.000
    C46      C        0.05760    0.27970    0.29340    1.000
    C47      C        0.10820    0.20090    0.24250    1.000
    C48      C        0.12860    0.31210    0.36970    1.000
    C49      C        0.82990    0.88610    0.95570    1.000
    C50      C        0.84360    0.79280    0.98310    1.000
    C51      C        0.77570    0.79910    0.05170    1.000
    C52      C        0.71880    0.89740    0.06600    1.000
    C53      C        0.63940    0.93010    0.13110    1.000
    C54      C        0.58610    0.02430    0.14770    1.000
    C55      C        0.49810    0.06080    0.21110    1.000
    C56      C        0.47300    0.15490    0.20630    1.000
    C57      C        0.54220    0.18060    0.13900    1.000
    C58      C        0.54460    0.27180    0.11400    1.000
    C59      C        0.61700    0.29650    0.04890    1.000
    C60      C        0.62290    0.39330    0.02810    1.000
    C61      C        0.71400    0.39090    0.96770    1.000
    C62      C        0.76060    0.29230    0.95150    1.000
    C63      C        0.85340    0.25960    0.89110    1.000
    C64      C        0.88700    0.16180    0.86750    1.000
    C65      C        0.97910    0.12480    0.80530    1.000
    C66      C        0.98370    0.02670    0.80240    1.000
    C67      C        0.89900    0.00020    0.86380    1.000
    C68      C        0.89010    0.90740    0.88580    1.000
    C69      C        0.60910    0.86020    0.18800    1.000
    C70      C        0.52780    0.77730    0.16520    1.000
    C71      C        0.51100    0.70740    0.21500    1.000
    C72      C        0.57410    0.72000    0.28770    1.000
    C73      C        0.65370    0.80350    0.31190    1.000
    C74      C        0.66920    0.87340    0.26180    1.000
    C75      C        0.72030    0.81700    0.39160    1.000
    C76      C        0.46440    0.34840    0.16320    1.000
    C77      C        0.33870    0.38050    0.13690    1.000
    C78      C        0.25530    0.44260    0.18630    1.000
    C79      C        0.29730    0.47360    0.26240    1.000
    C80      C        0.42640    0.44650    0.28810    1.000
    C81      C        0.50940    0.38450    0.23890    1.000
    C82      C        0.47340    0.48290    0.37000    1.000
    C83      C        0.93030    0.33030    0.84910    1.000
    C84      C        0.03190    0.39100    0.88890    1.000
    C85      C        0.12200    0.44390    0.84830    1.000
    C86      C        0.11380    0.43730    0.76760    1.000
    C87      C        0.00680    0.38280    0.72780    1.000
    C88      C        0.91500    0.32990    0.76850    1.000
    C89      C        0.99140    0.37910    0.64050    1.000
    C90      C        0.95210    0.82650    0.83180    1.000
    C91      C        0.06580    0.77470    0.85240    1.000
    C92      C        0.11680    0.69740    0.80170    1.000
    C93      C        0.05490    0.66970    0.72910    1.000
    C94      C        0.94240    0.72030    0.70660    1.000
    C95      C        0.89180    0.79910    0.75750    1.000
    C96      C        0.87140    0.68790    0.63030    1.000
    N1       N        0.24320    0.05120    0.99294    1.000
    N2       N        0.39060    0.90090    0.89453    1.000
    N3       N        0.30040    0.76510    0.99932    1.000
    N4       N        0.15940    0.91710    0.09980    1.000
    N5       N        0.75680    0.94880    0.00706    1.000
    N6       N        0.60940    0.09910    0.10547    1.000
    N7       N        0.69960    0.23490    0.00068    1.000
    N8       N        0.84060    0.08290    0.90020    1.000
    O1       O        0.23340    0.09830    0.58110    1.000
    O2       O        0.27950    0.25260    0.57053    1.000
    O3       O        0.40040    0.49430    0.61909    1.000
    O4       O        0.61650    0.51010    0.57668    1.000
    O5       O        0.91190    0.58460    0.39509    1.000
    O6       O        0.11780    0.65760    0.39152    1.000
    O7       O        0.07570    0.38060    0.41593    1.000
    O8       O        0.23960    0.27270    0.38773    1.000
    O9       O        0.76660    0.90170    0.41890    1.000
    O10      O        0.72050    0.74740    0.42947    1.000
    O11      O        0.59960    0.50570    0.38091    1.000
    O12      O        0.38350    0.48990    0.42332    1.000
    O13      O        0.08810    0.41540    0.60491    1.000
    O14      O        0.88220    0.34240    0.60848    1.000
    O15      O        0.92430    0.61940    0.58407    1.000
    O16      O        0.76040    0.72730    0.61227    1.000
