# CIF file generated by openbabel 3.1.0, see https://openbabel.org
data_I
_chemical_name_common 'image0'
_cell_length_a 17.0105
_cell_length_b 21.9594
_cell_length_c 24.8081
_cell_angle_alpha 90
_cell_angle_beta 90
_cell_angle_gamma 90
_space_group_name_H-M_alt 'P 1'
_space_group_name_Hall 'P 1'
loop_
    _symmetry_equiv_pos_as_xyz
    x,y,z
loop_
    _atom_site_label
    _atom_site_type_symbol
    _atom_site_fract_x
    _atom_site_fract_y
    _atom_site_fract_z
    _atom_site_occupancy
    Th1      Th       0.43088    0.59800    0.55477    1.000
    Th2      Th       0.45300    0.54819    0.39889    1.000
    Th3      Th       0.64543    0.56240    0.49495    1.000
    O1       O        0.44690    0.59620    0.65270    1.000
    O2       O        0.50790    0.51130    0.67960    1.000
    O3       O        0.36210    0.82730    0.99600    1.000
    O4       O        0.37750    0.85560    0.90790    1.000
    O5       O        0.65800    0.87890    0.91310    1.000
    O6       O        0.55360    0.88300    0.85810    1.000
    O7       O        0.35130    0.65660    0.83280    1.000
    O8       O        0.51840    0.76910    0.93610    1.000
    O9       O        0.60000    0.69260    0.77600    1.000
    O10      O        0.29500    0.58330    0.58350    1.000
    O11      O        0.24880    0.49660    0.54970    1.000
    O12      O        0.32350    0.51470    0.37020    1.000
    O13      O        0.25940    0.45970    0.43090    1.000
    O14      O        0.01570    0.81060    0.43680    1.000
    O15      O        0.13630    0.83370    0.46630    1.000
    O16      O        0.09580    0.44840    0.48750    1.000
    O17      O        0.07710    0.60440    0.36770    1.000
    O18      O        0.05040    0.63880    0.54790    1.000
    O19      O        0.51420    0.60650    0.47300    1.000
    O20      O        0.38230    0.53890    0.48120    1.000
    O21      O        0.58090    0.50680    0.42160    1.000
    O22      O        0.55840    0.55540    0.57080    1.000
    N1       N        0.47390    0.67820    0.80150    1.000
    N2       N        0.43440    0.71060    0.88650    1.000
    N3       N        0.56230    0.72810    0.85740    1.000
    N4       N        0.08750    0.54530    0.51960    1.000
    N5       N        0.09690    0.52600    0.42690    1.000
    N6       N        0.06140    0.62330    0.45740    1.000
    C1       C        0.47830    0.56200    0.68770    1.000
    C2       C        0.47850    0.58610    0.74450    1.000
    H1       H        0.44120    0.56200    0.76660    1.000
    H2       H        0.53160    0.58090    0.76010    1.000
    C3       C        0.45580    0.65210    0.74710    1.000
    H3       H        0.48500    0.67510    0.71910    1.000
    H4       H        0.39890    0.65640    0.73960    1.000
    C4       C        0.41530    0.68050    0.83980    1.000
    C5       C        0.37530    0.70940    0.92990    1.000
    H5       H        0.40260    0.71200    0.96510    1.000
    H6       H        0.34710    0.67000    0.92870    1.000
    C6       C        0.31570    0.76080    0.92620    1.000
    H7       H        0.29720    0.76510    0.88860    1.000
    H8       H        0.26970    0.75160    0.94930    1.000
    C7       C        0.35400    0.81930    0.94460    1.000
    C8       C        0.50500    0.73840    0.89580    1.000
    C9       C        0.64360    0.75100    0.86790    1.000
    H9       H        0.68230    0.72070    0.85480    1.000
    H10      H        0.65140    0.75610    0.90720    1.000
    C10      C        0.65740    0.81200    0.83950    1.000
    H11      H        0.71450    0.81960    0.83610    1.000
    H12      H        0.63440    0.81070    0.80290    1.000
    C11      C        0.61970    0.86260    0.87170    1.000
    C12      C        0.54850    0.69860    0.80950    1.000
    C13      C        0.24150    0.54360    0.57650    1.000
    C14      C        0.16340    0.55570    0.60380    1.000
    H13      H        0.16610    0.54120    0.64150    1.000
    H14      H        0.15410    0.60020    0.60470    1.000
    C15      C        0.09490    0.52530    0.57610    1.000
    H15      H        0.10220    0.48060    0.57710    1.000
    H16      H        0.04580    0.53500    0.59570    1.000
    C16      C        0.09430    0.50300    0.47810    1.000
    C17      C        0.11200    0.48440    0.38110    1.000
    H17      H        0.06950    0.48910    0.35420    1.000
    H18      H        0.11100    0.44180    0.39430    1.000
    C18      C        0.19040    0.49660    0.35430    1.000
    H19      H        0.19520    0.46880    0.32300    1.000
    H20      H        0.18940    0.53870    0.34000    1.000
    C19      C        0.26280    0.48990    0.38790    1.000
    C20      C        0.07930    0.58610    0.41340    1.000
    C21      C        0.03700    0.68750    0.44680    1.000
    H21      H        0.99630    0.69980    0.47320    1.000
    H22      H        0.01390    0.69050    0.41030    1.000
    C22      C        0.10660    0.72960    0.45110    1.000
    H23      H        0.14250    0.72180    0.42050    1.000
    H24      H        0.13550    0.72040    0.48480    1.000
    C23      C        0.08330    0.79700    0.45110    1.000
    C24      C        0.06530    0.60520    0.51060    1.000
    Th4      Th       0.06912    0.40200    0.05477    1.000
    Th5      Th       0.04700    0.45181    0.89889    1.000
    Th6      Th       0.85457    0.43760    0.99495    1.000
    O23      O        0.05310    0.40380    0.15270    1.000
    O24      O        0.99210    0.48870    0.17960    1.000
    O25      O        0.13790    0.17270    0.49600    1.000
    O26      O        0.12250    0.14440    0.40790    1.000
    O27      O        0.84200    0.12110    0.41310    1.000
    O28      O        0.94640    0.11700    0.35810    1.000
    O29      O        0.14870    0.34340    0.33280    1.000
    O30      O        0.98160    0.23090    0.43610    1.000
    O31      O        0.90000    0.30740    0.27600    1.000
    O32      O        0.20500    0.41670    0.08350    1.000
    O33      O        0.25120    0.50340    0.04970    1.000
    O34      O        0.17650    0.48530    0.87020    1.000
    O35      O        0.24060    0.54030    0.93090    1.000
    O36      O        0.48430    0.18940    0.93680    1.000
    O37      O        0.36370    0.16630    0.96630    1.000
    O38      O        0.40420    0.55160    0.98750    1.000
    O39      O        0.42290    0.39560    0.86770    1.000
    O40      O        0.44960    0.36120    0.04790    1.000
    O41      O        0.98580    0.39350    0.97300    1.000
    O42      O        0.11770    0.46110    0.98120    1.000
    O43      O        0.91910    0.49320    0.92160    1.000
    O44      O        0.94160    0.44460    0.07080    1.000
    N7       N        0.02610    0.32180    0.30150    1.000
    N8       N        0.06560    0.28940    0.38650    1.000
    N9       N        0.93770    0.27190    0.35740    1.000
    N10      N        0.41250    0.45470    0.01960    1.000
    N11      N        0.40310    0.47400    0.92690    1.000
    N12      N        0.43860    0.37670    0.95740    1.000
    C25      C        0.02170    0.43800    0.18770    1.000
    C26      C        0.02150    0.41390    0.24450    1.000
    H25      H        0.05880    0.43800    0.26660    1.000
    H26      H        0.96840    0.41910    0.26010    1.000
    C27      C        0.04420    0.34790    0.24710    1.000
    H27      H        0.01500    0.32490    0.21910    1.000
    H28      H        0.10110    0.34360    0.23960    1.000
    C28      C        0.08470    0.31950    0.33980    1.000
    C29      C        0.12470    0.29060    0.42990    1.000
    H29      H        0.09740    0.28800    0.46510    1.000
    H30      H        0.15290    0.33000    0.42870    1.000
    C30      C        0.18430    0.23920    0.42620    1.000
    H31      H        0.20280    0.23490    0.38860    1.000
    H32      H        0.23030    0.24840    0.44930    1.000
    C31      C        0.14600    0.18070    0.44460    1.000
    C32      C        0.99500    0.26160    0.39580    1.000
    C33      C        0.85640    0.24900    0.36790    1.000
    H33      H        0.81770    0.27930    0.35480    1.000
    H34      H        0.84860    0.24390    0.40720    1.000
    C34      C        0.84260    0.18800    0.33950    1.000
    H35      H        0.78550    0.18040    0.33610    1.000
    H36      H        0.86560    0.18930    0.30290    1.000
    C35      C        0.88030    0.13740    0.37170    1.000
    C36      C        0.95150    0.30140    0.30950    1.000
    C37      C        0.25850    0.45640    0.07650    1.000
    C38      C        0.33660    0.44430    0.10380    1.000
    H37      H        0.33390    0.45880    0.14150    1.000
    H38      H        0.34590    0.39980    0.10470    1.000
    C39      C        0.40510    0.47470    0.07610    1.000
    H39      H        0.39780    0.51940    0.07710    1.000
    H40      H        0.45420    0.46500    0.09570    1.000
    C40      C        0.40570    0.49700    0.97810    1.000
    C41      C        0.38800    0.51560    0.88110    1.000
    H41      H        0.43050    0.51090    0.85420    1.000
    H42      H        0.38900    0.55820    0.89430    1.000
    C42      C        0.30960    0.50340    0.85430    1.000
    H43      H        0.30480    0.53120    0.82300    1.000
    H44      H        0.31060    0.46130    0.84000    1.000
    C43      C        0.23720    0.51010    0.88790    1.000
    C44      C        0.42070    0.41390    0.91340    1.000
    C45      C        0.46300    0.31250    0.94680    1.000
    H45      H        0.50370    0.30020    0.97320    1.000
    H46      H        0.48610    0.30950    0.91030    1.000
    C46      C        0.39340    0.27040    0.95110    1.000
    H47      H        0.35750    0.27820    0.92050    1.000
    H48      H        0.36450    0.27960    0.98480    1.000
    C47      C        0.41670    0.20300    0.95110    1.000
    C48      C        0.43470    0.39480    0.01060    1.000
    Th7      Th       0.56912    0.09800    0.94523    1.000
    Th8      Th       0.54700    0.04819    0.10111    1.000
    Th9      Th       0.35457    0.06240    0.00505    1.000
    O45      O        0.55310    0.09620    0.84730    1.000
    O46      O        0.49210    0.01130    0.82040    1.000
    O47      O        0.63790    0.32730    0.50400    1.000
    O48      O        0.62250    0.35560    0.59210    1.000
    O49      O        0.34200    0.37890    0.58690    1.000
    O50      O        0.44640    0.38300    0.64190    1.000
    O51      O        0.64870    0.15660    0.66720    1.000
    O52      O        0.48160    0.26910    0.56390    1.000
    O53      O        0.40000    0.19260    0.72400    1.000
    O54      O        0.70500    0.08330    0.91650    1.000
    O55      O        0.75120    0.99660    0.95030    1.000
    O56      O        0.67650    0.01470    0.12980    1.000
    O57      O        0.74060    0.95970    0.06910    1.000
    O58      O        0.98430    0.31060    0.06320    1.000
    O59      O        0.86370    0.33370    0.03370    1.000
    O60      O        0.90420    0.94840    0.01250    1.000
    O61      O        0.92290    0.10440    0.13230    1.000
    O62      O        0.94960    0.13880    0.95210    1.000
    O63      O        0.48580    0.10650    0.02700    1.000
    O64      O        0.61770    0.03890    0.01880    1.000
    O65      O        0.41910    0.00680    0.07840    1.000
    O66      O        0.44160    0.05540    0.92920    1.000
    N13      N        0.52610    0.17820    0.69850    1.000
    N14      N        0.56560    0.21060    0.61350    1.000
    N15      N        0.43770    0.22810    0.64260    1.000
    N16      N        0.91250    0.04530    0.98040    1.000
    N17      N        0.90310    0.02600    0.07310    1.000
    N18      N        0.93860    0.12330    0.04260    1.000
    C49      C        0.52170    0.06200    0.81230    1.000
    C50      C        0.52150    0.08610    0.75550    1.000
    H49      H        0.55880    0.06200    0.73340    1.000
    H50      H        0.46840    0.08090    0.73990    1.000
    C51      C        0.54420    0.15210    0.75290    1.000
    H51      H        0.51500    0.17510    0.78090    1.000
    H52      H        0.60110    0.15640    0.76040    1.000
    C52      C        0.58470    0.18050    0.66020    1.000
    C53      C        0.62470    0.20940    0.57010    1.000
    H53      H        0.59740    0.21200    0.53490    1.000
    H54      H        0.65290    0.17000    0.57130    1.000
    C54      C        0.68430    0.26080    0.57380    1.000
    H55      H        0.70280    0.26510    0.61140    1.000
    H56      H        0.73030    0.25160    0.55070    1.000
    C55      C        0.64600    0.31930    0.55540    1.000
    C56      C        0.49500    0.23840    0.60420    1.000
    C57      C        0.35640    0.25100    0.63210    1.000
    H57      H        0.31770    0.22070    0.64520    1.000
    H58      H        0.34860    0.25610    0.59280    1.000
    C58      C        0.34260    0.31200    0.66050    1.000
    H59      H        0.28550    0.31960    0.66390    1.000
    H60      H        0.36560    0.31070    0.69710    1.000
    C59      C        0.38030    0.36260    0.62830    1.000
    C60      C        0.45150    0.19860    0.69050    1.000
    C61      C        0.75850    0.04360    0.92350    1.000
    C62      C        0.83660    0.05570    0.89620    1.000
    H61      H        0.83390    0.04120    0.85850    1.000
    H62      H        0.84590    0.10020    0.89530    1.000
    C63      C        0.90510    0.02530    0.92390    1.000
    H63      H        0.89780    0.98060    0.92290    1.000
    H64      H        0.95420    0.03500    0.90430    1.000
    C64      C        0.90570    0.00300    0.02190    1.000
    C65      C        0.88800    0.98440    0.11890    1.000
    H65      H        0.93050    0.98910    0.14580    1.000
    H66      H        0.88900    0.94180    0.10570    1.000
    C66      C        0.80960    0.99660    0.14570    1.000
    H67      H        0.80480    0.96880    0.17700    1.000
    H68      H        0.81060    0.03870    0.16000    1.000
    C67      C        0.73720    0.98990    0.11210    1.000
    C68      C        0.92070    0.08610    0.08660    1.000
    C69      C        0.96300    0.18750    0.05320    1.000
    H69      H        0.00370    0.19980    0.02680    1.000
    H70      H        0.98610    0.19050    0.08970    1.000
    C70      C        0.89340    0.22960    0.04890    1.000
    H71      H        0.85750    0.22180    0.07950    1.000
    H72      H        0.86450    0.22040    0.01520    1.000
    C71      C        0.91670    0.29700    0.04890    1.000
    C72      C        0.93470    0.10520    0.98940    1.000
    Th10     Th       0.93088    0.90200    0.44523    1.000
    Th11     Th       0.95300    0.95181    0.60111    1.000
    Th12     Th       0.14543    0.93760    0.50505    1.000
    O67      O        0.94690    0.90380    0.34730    1.000
    O68      O        0.00790    0.98870    0.32040    1.000
    O69      O        0.86210    0.67270    0.00400    1.000
    O70      O        0.87750    0.64440    0.09210    1.000
    O71      O        0.15800    0.62110    0.08690    1.000
    O72      O        0.05360    0.61700    0.14190    1.000
    O73      O        0.85130    0.84340    0.16720    1.000
    O74      O        0.01840    0.73090    0.06390    1.000
    O75      O        0.10000    0.80740    0.22400    1.000
    O76      O        0.79500    0.91670    0.41650    1.000
    O77      O        0.74880    0.00340    0.45030    1.000
    O78      O        0.82350    0.98530    0.62980    1.000
    O79      O        0.75940    0.04030    0.56910    1.000
    O80      O        0.51570    0.68940    0.56320    1.000
    O81      O        0.63630    0.66630    0.53370    1.000
    O82      O        0.59580    0.05160    0.51250    1.000
    O83      O        0.57710    0.89560    0.63230    1.000
    O84      O        0.55040    0.86120    0.45210    1.000
    O85      O        0.01420    0.89350    0.52700    1.000
    O86      O        0.88230    0.96110    0.51880    1.000
    O87      O        0.08090    0.99320    0.57840    1.000
    O88      O        0.05840    0.94460    0.42920    1.000
    N19      N        0.97390    0.82180    0.19850    1.000
    N20      N        0.93440    0.78940    0.11350    1.000
    N21      N        0.06230    0.77190    0.14260    1.000
    N22      N        0.58750    0.95470    0.48040    1.000
    N23      N        0.59690    0.97400    0.57310    1.000
    N24      N        0.56140    0.87670    0.54260    1.000
    C73      C        0.97830    0.93800    0.31230    1.000
    C74      C        0.97850    0.91390    0.25550    1.000
    H73      H        0.94120    0.93800    0.23340    1.000
    H74      H        0.03160    0.91910    0.23990    1.000
    C75      C        0.95580    0.84790    0.25290    1.000
    H75      H        0.98500    0.82490    0.28090    1.000
    H76      H        0.89890    0.84360    0.26040    1.000
    C76      C        0.91530    0.81950    0.16020    1.000
    C77      C        0.87530    0.79060    0.07010    1.000
    H77      H        0.90260    0.78800    0.03490    1.000
    H78      H        0.84710    0.83000    0.07130    1.000
    C78      C        0.81570    0.73920    0.07380    1.000
    H79      H        0.79720    0.73490    0.11140    1.000
    H80      H        0.76970    0.74840    0.05070    1.000
    C79      C        0.85400    0.68070    0.05540    1.000
    C80      C        0.00500    0.76160    0.10420    1.000
    C81      C        0.14360    0.74900    0.13210    1.000
    H81      H        0.18230    0.77930    0.14520    1.000
    H82      H        0.15140    0.74390    0.09280    1.000
    C82      C        0.15740    0.68800    0.16050    1.000
    H83      H        0.21450    0.68040    0.16390    1.000
    H84      H        0.13440    0.68930    0.19710    1.000
    C83      C        0.11970    0.63740    0.12830    1.000
    C84      C        0.04850    0.80140    0.19050    1.000
    C85      C        0.74150    0.95640    0.42350    1.000
    C86      C        0.66340    0.94430    0.39620    1.000
    H85      H        0.66610    0.95880    0.35850    1.000
    H86      H        0.65410    0.89980    0.39530    1.000
    C87      C        0.59490    0.97470    0.42390    1.000
    H87      H        0.60220    0.01940    0.42290    1.000
    H88      H        0.54580    0.96500    0.40430    1.000
    C88      C        0.59430    0.99700    0.52190    1.000
    C89      C        0.61200    0.01560    0.61890    1.000
    H89      H        0.56950    0.01090    0.64580    1.000
    H90      H        0.61100    0.05820    0.60570    1.000
    C90      C        0.69040    0.00340    0.64570    1.000
    H91      H        0.69520    0.03120    0.67700    1.000
    H92      H        0.68940    0.96130    0.66000    1.000
    C91      C        0.76280    0.01010    0.61210    1.000
    C92      C        0.57930    0.91390    0.58660    1.000
    C93      C        0.53700    0.81250    0.55320    1.000
    H93      H        0.49630    0.80020    0.52680    1.000
    H94      H        0.51390    0.80950    0.58970    1.000
    C94      C        0.60660    0.77040    0.54890    1.000
    H95      H        0.64250    0.77820    0.57950    1.000
    H96      H        0.63550    0.77960    0.51520    1.000
    C95      C        0.58330    0.70300    0.54890    1.000
    C96      C        0.56530    0.89480    0.48940    1.000
    Th13     Th       0.56912    0.40200    0.44523    1.000
    Th14     Th       0.54700    0.45181    0.60111    1.000
    Th15     Th       0.35457    0.43760    0.50505    1.000
    O89      O        0.55310    0.40380    0.34730    1.000
    O90      O        0.49210    0.48870    0.32040    1.000
    O91      O        0.63790    0.17270    0.00400    1.000
    O92      O        0.62250    0.14440    0.09210    1.000
    O93      O        0.34200    0.12110    0.08690    1.000
    O94      O        0.44640    0.11700    0.14190    1.000
    O95      O        0.64870    0.34340    0.16720    1.000
    O96      O        0.48160    0.23090    0.06390    1.000
    O97      O        0.40000    0.30740    0.22400    1.000
    O98      O        0.70500    0.41670    0.41650    1.000
    O99      O        0.75120    0.50340    0.45030    1.000
    O100     O        0.67650    0.48530    0.62980    1.000
    O101     O        0.74060    0.54030    0.56910    1.000
    O102     O        0.98430    0.18940    0.56320    1.000
    O103     O        0.86370    0.16630    0.53370    1.000
    O104     O        0.90420    0.55160    0.51250    1.000
    O105     O        0.92290    0.39560    0.63230    1.000
    O106     O        0.94960    0.36120    0.45210    1.000
    O107     O        0.48580    0.39350    0.52700    1.000
    O108     O        0.61770    0.46110    0.51880    1.000
    O109     O        0.41910    0.49320    0.57840    1.000
    O110     O        0.44160    0.44460    0.42920    1.000
    N25      N        0.52610    0.32180    0.19850    1.000
    N26      N        0.56560    0.28940    0.11350    1.000
    N27      N        0.43770    0.27190    0.14260    1.000
    N28      N        0.91250    0.45470    0.48040    1.000
    N29      N        0.90310    0.47400    0.57310    1.000
    N30      N        0.93860    0.37670    0.54260    1.000
    C97      C        0.52170    0.43800    0.31230    1.000
    C98      C        0.52150    0.41390    0.25550    1.000
    H97      H        0.55880    0.43800    0.23340    1.000
    H98      H        0.46840    0.41910    0.23990    1.000
    C99      C        0.54420    0.34790    0.25290    1.000
    H99      H        0.51500    0.32490    0.28090    1.000
    H100     H        0.60110    0.34360    0.26040    1.000
    C100     C        0.58470    0.31950    0.16020    1.000
    C101     C        0.62470    0.29060    0.07010    1.000
    H101     H        0.59740    0.28800    0.03490    1.000
    H102     H        0.65290    0.33000    0.07130    1.000
    C102     C        0.68430    0.23920    0.07380    1.000
    H103     H        0.70280    0.23490    0.11140    1.000
    H104     H        0.73030    0.24840    0.05070    1.000
    C103     C        0.64600    0.18070    0.05540    1.000
    C104     C        0.49500    0.26160    0.10420    1.000
    C105     C        0.35640    0.24900    0.13210    1.000
    H105     H        0.31770    0.27930    0.14520    1.000
    H106     H        0.34860    0.24390    0.09280    1.000
    C106     C        0.34260    0.18800    0.16050    1.000
    H107     H        0.28550    0.18040    0.16390    1.000
    H108     H        0.36560    0.18930    0.19710    1.000
    C107     C        0.38030    0.13740    0.12830    1.000
    C108     C        0.45150    0.30140    0.19050    1.000
    C109     C        0.75850    0.45640    0.42350    1.000
    C110     C        0.83660    0.44430    0.39620    1.000
    H109     H        0.83390    0.45880    0.35850    1.000
    H110     H        0.84590    0.39980    0.39530    1.000
    C111     C        0.90510    0.47470    0.42390    1.000
    H111     H        0.89780    0.51940    0.42290    1.000
    H112     H        0.95420    0.46500    0.40430    1.000
    C112     C        0.90570    0.49700    0.52190    1.000
    C113     C        0.88800    0.51560    0.61890    1.000
    H113     H        0.93050    0.51090    0.64580    1.000
    H114     H        0.88900    0.55820    0.60570    1.000
    C114     C        0.80960    0.50340    0.64570    1.000
    H115     H        0.80480    0.53120    0.67700    1.000
    H116     H        0.81060    0.46130    0.66000    1.000
    C115     C        0.73720    0.51010    0.61210    1.000
    C116     C        0.92070    0.41390    0.58660    1.000
    C117     C        0.96300    0.31250    0.55320    1.000
    H117     H        0.00370    0.30020    0.52680    1.000
    H118     H        0.98610    0.30950    0.58970    1.000
    C118     C        0.89340    0.27040    0.54890    1.000
    H119     H        0.85750    0.27820    0.57950    1.000
    H120     H        0.86450    0.27960    0.51520    1.000
    C119     C        0.91670    0.20300    0.54890    1.000
    C120     C        0.93470    0.39480    0.48940    1.000
    Th16     Th       0.93088    0.59800    0.94523    1.000
    Th17     Th       0.95300    0.54819    0.10111    1.000
    Th18     Th       0.14543    0.56240    0.00505    1.000
    O111     O        0.94690    0.59620    0.84730    1.000
    O112     O        0.00790    0.51130    0.82040    1.000
    O113     O        0.86210    0.82730    0.50400    1.000
    O114     O        0.87750    0.85560    0.59210    1.000
    O115     O        0.15800    0.87890    0.58690    1.000
    O116     O        0.05360    0.88300    0.64190    1.000
    O117     O        0.85130    0.65660    0.66720    1.000
    O118     O        0.01840    0.76910    0.56390    1.000
    O119     O        0.10000    0.69260    0.72400    1.000
    O120     O        0.79500    0.58330    0.91650    1.000
    O121     O        0.74880    0.49660    0.95030    1.000
    O122     O        0.82350    0.51470    0.12980    1.000
    O123     O        0.75940    0.45970    0.06910    1.000
    O124     O        0.51570    0.81060    0.06320    1.000
    O125     O        0.63630    0.83370    0.03370    1.000
    O126     O        0.59580    0.44840    0.01250    1.000
    O127     O        0.57710    0.60440    0.13230    1.000
    O128     O        0.55040    0.63880    0.95210    1.000
    O129     O        0.01420    0.60650    0.02700    1.000
    O130     O        0.88230    0.53890    0.01880    1.000
    O131     O        0.08090    0.50680    0.07840    1.000
    O132     O        0.05840    0.55540    0.92920    1.000
    N31      N        0.97390    0.67820    0.69850    1.000
    N32      N        0.93440    0.71060    0.61350    1.000
    N33      N        0.06230    0.72810    0.64260    1.000
    N34      N        0.58750    0.54530    0.98040    1.000
    N35      N        0.59690    0.52600    0.07310    1.000
    N36      N        0.56140    0.62330    0.04260    1.000
    C121     C        0.97830    0.56200    0.81230    1.000
    C122     C        0.97850    0.58610    0.75550    1.000
    H121     H        0.94120    0.56200    0.73340    1.000
    H122     H        0.03160    0.58090    0.73990    1.000
    C123     C        0.95580    0.65210    0.75290    1.000
    H123     H        0.98500    0.67510    0.78090    1.000
    H124     H        0.89890    0.65640    0.76040    1.000
    C124     C        0.91530    0.68050    0.66020    1.000
    C125     C        0.87530    0.70940    0.57010    1.000
    H125     H        0.90260    0.71200    0.53490    1.000
    H126     H        0.84710    0.67000    0.57130    1.000
    C126     C        0.81570    0.76080    0.57380    1.000
    H127     H        0.79720    0.76510    0.61140    1.000
    H128     H        0.76970    0.75160    0.55070    1.000
    C127     C        0.85400    0.81930    0.55540    1.000
    C128     C        0.00500    0.73840    0.60420    1.000
    C129     C        0.14360    0.75100    0.63210    1.000
    H129     H        0.18230    0.72070    0.64520    1.000
    H130     H        0.15140    0.75610    0.59280    1.000
    C130     C        0.15740    0.81200    0.66050    1.000
    H131     H        0.21450    0.81960    0.66390    1.000
    H132     H        0.13440    0.81070    0.69710    1.000
    C131     C        0.11970    0.86260    0.62830    1.000
    C132     C        0.04850    0.69860    0.69050    1.000
    C133     C        0.74150    0.54360    0.92350    1.000
    C134     C        0.66340    0.55570    0.89620    1.000
    H133     H        0.66610    0.54120    0.85850    1.000
    H134     H        0.65410    0.60020    0.89530    1.000
    C135     C        0.59490    0.52530    0.92390    1.000
    H135     H        0.60220    0.48060    0.92290    1.000
    H136     H        0.54580    0.53500    0.90430    1.000
    C136     C        0.59430    0.50300    0.02190    1.000
    C137     C        0.61200    0.48440    0.11890    1.000
    H137     H        0.56950    0.48910    0.14580    1.000
    H138     H        0.61100    0.44180    0.10570    1.000
    C138     C        0.69040    0.49660    0.14570    1.000
    H139     H        0.69520    0.46880    0.17700    1.000
    H140     H        0.68940    0.53870    0.16000    1.000
    C139     C        0.76280    0.48990    0.11210    1.000
    C140     C        0.57930    0.58610    0.08660    1.000
    C141     C        0.53700    0.68750    0.05320    1.000
    H141     H        0.49630    0.69980    0.02680    1.000
    H142     H        0.51390    0.69050    0.08970    1.000
    C142     C        0.60660    0.72960    0.04890    1.000
    H143     H        0.64250    0.72180    0.07950    1.000
    H144     H        0.63550    0.72040    0.01520    1.000
    C143     C        0.58330    0.79700    0.04890    1.000
    C144     C        0.56530    0.60520    0.98940    1.000
    Th19     Th       0.43088    0.90200    0.05477    1.000
    Th20     Th       0.45300    0.95181    0.89889    1.000
    Th21     Th       0.64543    0.93760    0.99495    1.000
    O133     O        0.44690    0.90380    0.15270    1.000
    O134     O        0.50790    0.98870    0.17960    1.000
    O135     O        0.36210    0.67270    0.49600    1.000
    O136     O        0.37750    0.64440    0.40790    1.000
    O137     O        0.65800    0.62110    0.41310    1.000
    O138     O        0.55360    0.61700    0.35810    1.000
    O139     O        0.35130    0.84340    0.33280    1.000
    O140     O        0.51840    0.73090    0.43610    1.000
    O141     O        0.60000    0.80740    0.27600    1.000
    O142     O        0.29500    0.91670    0.08350    1.000
    O143     O        0.24880    0.00340    0.04970    1.000
    O144     O        0.32350    0.98530    0.87020    1.000
    O145     O        0.25940    0.04030    0.93090    1.000
    O146     O        0.01570    0.68940    0.93680    1.000
    O147     O        0.13630    0.66630    0.96630    1.000
    O148     O        0.09580    0.05160    0.98750    1.000
    O149     O        0.07710    0.89560    0.86770    1.000
    O150     O        0.05040    0.86120    0.04790    1.000
    O151     O        0.51420    0.89350    0.97300    1.000
    O152     O        0.38230    0.96110    0.98120    1.000
    O153     O        0.58090    0.99320    0.92160    1.000
    O154     O        0.55840    0.94460    0.07080    1.000
    N37      N        0.47390    0.82180    0.30150    1.000
    N38      N        0.43440    0.78940    0.38650    1.000
    N39      N        0.56230    0.77190    0.35740    1.000
    N40      N        0.08750    0.95470    0.01960    1.000
    N41      N        0.09690    0.97400    0.92690    1.000
    N42      N        0.06140    0.87670    0.95740    1.000
    C145     C        0.47830    0.93800    0.18770    1.000
    C146     C        0.47850    0.91390    0.24450    1.000
    H145     H        0.44120    0.93800    0.26660    1.000
    H146     H        0.53160    0.91910    0.26010    1.000
    C147     C        0.45580    0.84790    0.24710    1.000
    H147     H        0.48500    0.82490    0.21910    1.000
    H148     H        0.39890    0.84360    0.23960    1.000
    C148     C        0.41530    0.81950    0.33980    1.000
    C149     C        0.37530    0.79060    0.42990    1.000
    H149     H        0.40260    0.78800    0.46510    1.000
    H150     H        0.34710    0.83000    0.42870    1.000
    C150     C        0.31570    0.73920    0.42620    1.000
    H151     H        0.29720    0.73490    0.38860    1.000
    H152     H        0.26970    0.74840    0.44930    1.000
    C151     C        0.35400    0.68070    0.44460    1.000
    C152     C        0.50500    0.76160    0.39580    1.000
    C153     C        0.64360    0.74900    0.36790    1.000
    H153     H        0.68230    0.77930    0.35480    1.000
    H154     H        0.65140    0.74390    0.40720    1.000
    C154     C        0.65740    0.68800    0.33950    1.000
    H155     H        0.71450    0.68040    0.33610    1.000
    H156     H        0.63440    0.68930    0.30290    1.000
    C155     C        0.61970    0.63740    0.37170    1.000
    C156     C        0.54850    0.80140    0.30950    1.000
    C157     C        0.24150    0.95640    0.07650    1.000
    C158     C        0.16340    0.94430    0.10380    1.000
    H157     H        0.16610    0.95880    0.14150    1.000
    H158     H        0.15410    0.89980    0.10470    1.000
    C159     C        0.09490    0.97470    0.07610    1.000
    H159     H        0.10220    0.01940    0.07710    1.000
    H160     H        0.04580    0.96500    0.09570    1.000
    C160     C        0.09430    0.99700    0.97810    1.000
    C161     C        0.11200    0.01560    0.88110    1.000
    H161     H        0.06950    0.01090    0.85420    1.000
    H162     H        0.11100    0.05820    0.89430    1.000
    C162     C        0.19040    0.00340    0.85430    1.000
    H163     H        0.19520    0.03120    0.82300    1.000
    H164     H        0.18940    0.96130    0.84000    1.000
    C163     C        0.26280    0.01010    0.88790    1.000
    C164     C        0.07930    0.91390    0.91340    1.000
    C165     C        0.03700    0.81250    0.94680    1.000
    H165     H        0.99630    0.80020    0.97320    1.000
    H166     H        0.01390    0.80950    0.91030    1.000
    C166     C        0.10660    0.77040    0.95110    1.000
    H167     H        0.14250    0.77820    0.92050    1.000
    H168     H        0.13550    0.77960    0.98480    1.000
    C167     C        0.08330    0.70300    0.95110    1.000
    C168     C        0.06530    0.89480    0.01060    1.000
    Th22     Th       0.06912    0.09800    0.55477    1.000
    Th23     Th       0.04700    0.04819    0.39889    1.000
    Th24     Th       0.85457    0.06240    0.49495    1.000
    O155     O        0.05310    0.09620    0.65270    1.000
    O156     O        0.99210    0.01130    0.67960    1.000
    O157     O        0.13790    0.32730    0.99600    1.000
    O158     O        0.12250    0.35560    0.90790    1.000
    O159     O        0.84200    0.37890    0.91310    1.000
    O160     O        0.94640    0.38300    0.85810    1.000
    O161     O        0.14870    0.15660    0.83280    1.000
    O162     O        0.98160    0.26910    0.93610    1.000
    O163     O        0.90000    0.19260    0.77600    1.000
    O164     O        0.20500    0.08330    0.58350    1.000
    O165     O        0.25120    0.99660    0.54970    1.000
    O166     O        0.17650    0.01470    0.37020    1.000
    O167     O        0.24060    0.95970    0.43090    1.000
    O168     O        0.48430    0.31060    0.43680    1.000
    O169     O        0.36370    0.33370    0.46630    1.000
    O170     O        0.40420    0.94840    0.48750    1.000
    O171     O        0.42290    0.10440    0.36770    1.000
    O172     O        0.44960    0.13880    0.54790    1.000
    O173     O        0.98580    0.10650    0.47300    1.000
    O174     O        0.11770    0.03890    0.48120    1.000
    O175     O        0.91910    0.00680    0.42160    1.000
    O176     O        0.94160    0.05540    0.57080    1.000
    N43      N        0.02610    0.17820    0.80150    1.000
    N44      N        0.06560    0.21060    0.88650    1.000
    N45      N        0.93770    0.22810    0.85740    1.000
    N46      N        0.41250    0.04530    0.51960    1.000
    N47      N        0.40310    0.02600    0.42690    1.000
    N48      N        0.43860    0.12330    0.45740    1.000
    C169     C        0.02170    0.06200    0.68770    1.000
    C170     C        0.02150    0.08610    0.74450    1.000
    H169     H        0.05880    0.06200    0.76660    1.000
    H170     H        0.96840    0.08090    0.76010    1.000
    C171     C        0.04420    0.15210    0.74710    1.000
    H171     H        0.01500    0.17510    0.71910    1.000
    H172     H        0.10110    0.15640    0.73960    1.000
    C172     C        0.08470    0.18050    0.83980    1.000
    C173     C        0.12470    0.20940    0.92990    1.000
    H173     H        0.09740    0.21200    0.96510    1.000
    H174     H        0.15290    0.17000    0.92870    1.000
    C174     C        0.18430    0.26080    0.92620    1.000
    H175     H        0.20280    0.26510    0.88860    1.000
    H176     H        0.23030    0.25160    0.94930    1.000
    C175     C        0.14600    0.31930    0.94460    1.000
    C176     C        0.99500    0.23840    0.89580    1.000
    C177     C        0.85640    0.25100    0.86790    1.000
    H177     H        0.81770    0.22070    0.85480    1.000
    H178     H        0.84860    0.25610    0.90720    1.000
    C178     C        0.84260    0.31200    0.83950    1.000
    H179     H        0.78550    0.31960    0.83610    1.000
    H180     H        0.86560    0.31070    0.80290    1.000
    C179     C        0.88030    0.36260    0.87170    1.000
    C180     C        0.95150    0.19860    0.80950    1.000
    C181     C        0.25850    0.04360    0.57650    1.000
    C182     C        0.33660    0.05570    0.60380    1.000
    H181     H        0.33390    0.04120    0.64150    1.000
    H182     H        0.34590    0.10020    0.60470    1.000
    C183     C        0.40510    0.02530    0.57610    1.000
    H183     H        0.39780    0.98060    0.57710    1.000
    H184     H        0.45420    0.03500    0.59570    1.000
    C184     C        0.40570    0.00300    0.47810    1.000
    C185     C        0.38800    0.98440    0.38110    1.000
    H185     H        0.43050    0.98910    0.35420    1.000
    H186     H        0.38900    0.94180    0.39430    1.000
    C186     C        0.30960    0.99660    0.35430    1.000
    H187     H        0.30480    0.96880    0.32300    1.000
    H188     H        0.31060    0.03870    0.34000    1.000
    C187     C        0.23720    0.98990    0.38790    1.000
    C188     C        0.42070    0.08610    0.41340    1.000
    C189     C        0.46300    0.18750    0.44680    1.000
    H189     H        0.50370    0.19980    0.47320    1.000
    H190     H        0.48610    0.19050    0.41030    1.000
    C190     C        0.39340    0.22960    0.45110    1.000
    H191     H        0.35750    0.22180    0.42050    1.000
    H192     H        0.36450    0.22040    0.48480    1.000
    C191     C        0.41670    0.29700    0.45110    1.000
    C192     C        0.43470    0.10520    0.51060    1.000
