# CIF file generated by openbabel 3.1.0, see https://openbabel.org
data_I
_chemical_name_common 'image0'
_cell_length_a 22.2858
_cell_length_b 17.371
_cell_length_c 10.1701
_cell_angle_alpha 90
_cell_angle_beta 110.425
_cell_angle_gamma 90
_space_group_name_H-M_alt 'P 1'
_space_group_name_Hall 'P 1'
loop_
    _symmetry_equiv_pos_as_xyz
    x,y,z
loop_
    _atom_site_label
    _atom_site_type_symbol
    _atom_site_fract_x
    _atom_site_fract_y
    _atom_site_fract_z
    _atom_site_occupancy
    Sr1      Sr       0.33399    0.09999    0.52781    1.000
    P1       P        0.47612    0.15303    0.46067    1.000
    O1       O        0.45770    0.12310    0.58090    1.000
    C1       C        0.56170    0.17320    0.51730    1.000
    P2       P        0.60918    0.08554    0.57937    1.000
    O2       O        0.45920    0.10050    0.33510    1.000
    C2       C        0.57880    0.23240    0.63600    1.000
    H1       H        0.57030    0.21110    0.71490    1.000
    H2       H        0.55340    0.27790    0.60430    1.000
    H3       H        0.62330    0.24540    0.66330    1.000
    P3       P        0.19124    0.17668    0.59160    1.000
    O3       O        0.44590    0.23390    0.41250    1.000
    H4       H        0.41120    0.23970    0.42830    1.000
    C3       C        0.16460    0.11010    0.44260    1.000
    P4       P        0.18634    0.00981    0.48340    1.000
    O4       O        0.59940    0.06260    0.71320    1.000
    C4       C        0.09250    0.11670    0.36240    1.000
    H5       H        0.08130    0.16980    0.34110    1.000
    H6       H        0.06950    0.09670    0.41900    1.000
    H7       H        0.08140    0.08780    0.27670    1.000
    O5       O        0.59260    0.02780    0.46290    1.000
    O6       O        0.68030    0.11070    0.61020    1.000
    O7       O        0.25650    0.00500    0.55900    1.000
    O8       O        0.16190    0.25390    0.54110    1.000
    O9       O        0.20160    0.13250    0.35570    1.000
    H8       H        0.19440    0.17770    0.33250    1.000
    O10      O        0.16210    0.14890    0.70290    1.000
    H9       H        0.17340    0.10440    0.72580    1.000
    O11      O        0.14630    0.97980    0.56840    1.000
    H10      H        0.15970    0.99840    0.64740    1.000
    O12      O        0.26350    0.17490    0.64830    1.000
    O13      O        0.57610    0.20670    0.40280    1.000
    H11      H        0.56580    0.17620    0.33310    1.000
    O14      O        0.16870    0.97840    0.33700    1.000
    O15      O        0.14990    0.94920    0.38360    1.000
    Sr2      Sr       0.83399    0.59999    0.52781    1.000
    P5       P        0.97612    0.65303    0.46067    1.000
    O16      O        0.95770    0.62310    0.58090    1.000
    C5       C        0.06170    0.67320    0.51730    1.000
    P6       P        0.10918    0.58554    0.57937    1.000
    O17      O        0.95920    0.60050    0.33510    1.000
    C6       C        0.07880    0.73240    0.63600    1.000
    H12      H        0.07030    0.71110    0.71490    1.000
    H13      H        0.05340    0.77790    0.60430    1.000
    H14      H        0.12330    0.74540    0.66330    1.000
    P7       P        0.69124    0.67668    0.59160    1.000
    O18      O        0.94590    0.73390    0.41250    1.000
    H15      H        0.91120    0.73970    0.42830    1.000
    C7       C        0.66460    0.61010    0.44260    1.000
    P8       P        0.68634    0.50981    0.48340    1.000
    O19      O        0.09940    0.56260    0.71320    1.000
    C8       C        0.59250    0.61670    0.36240    1.000
    H16      H        0.58130    0.66980    0.34110    1.000
    H17      H        0.56950    0.59670    0.41900    1.000
    H18      H        0.58140    0.58780    0.27670    1.000
    O20      O        0.09260    0.52780    0.46290    1.000
    O21      O        0.18030    0.61070    0.61020    1.000
    O22      O        0.75650    0.50500    0.55900    1.000
    O23      O        0.66190    0.75390    0.54110    1.000
    O24      O        0.70160    0.63250    0.35570    1.000
    H19      H        0.69440    0.67770    0.33250    1.000
    O25      O        0.66210    0.64890    0.70290    1.000
    H20      H        0.67340    0.60440    0.72580    1.000
    O26      O        0.64630    0.47980    0.56840    1.000
    H21      H        0.65970    0.49840    0.64740    1.000
    O27      O        0.76350    0.67490    0.64830    1.000
    O28      O        0.07610    0.70670    0.40280    1.000
    H22      H        0.06580    0.67620    0.33310    1.000
    O29      O        0.66870    0.47840    0.33700    1.000
    O30      O        0.64990    0.44920    0.38360    1.000
    Sr3      Sr       0.66601    0.09999    0.97219    1.000
    P9       P        0.52388    0.15303    0.03933    1.000
    O31      O        0.54230    0.12310    0.91910    1.000
    C9       C        0.43830    0.17320    0.98270    1.000
    P10      P        0.39082    0.08554    0.92063    1.000
    O32      O        0.54080    0.10050    0.16490    1.000
    C10      C        0.42120    0.23240    0.86400    1.000
    H23      H        0.42970    0.21110    0.78510    1.000
    H24      H        0.44660    0.27790    0.89570    1.000
    H25      H        0.37670    0.24540    0.83670    1.000
    P11      P        0.80876    0.17668    0.90840    1.000
    O33      O        0.55410    0.23390    0.08750    1.000
    H26      H        0.58880    0.23970    0.07170    1.000
    C11      C        0.83540    0.11010    0.05740    1.000
    P12      P        0.81366    0.00981    0.01660    1.000
    O34      O        0.40060    0.06260    0.78680    1.000
    C12      C        0.90750    0.11670    0.13760    1.000
    H27      H        0.91870    0.16980    0.15890    1.000
    H28      H        0.93050    0.09670    0.08100    1.000
    H29      H        0.91860    0.08780    0.22330    1.000
    O35      O        0.40740    0.02780    0.03710    1.000
    O36      O        0.31970    0.11070    0.88980    1.000
    O37      O        0.74350    0.00500    0.94100    1.000
    O38      O        0.83810    0.25390    0.95890    1.000
    O39      O        0.79840    0.13250    0.14430    1.000
    H30      H        0.80560    0.17770    0.16750    1.000
    O40      O        0.83790    0.14890    0.79710    1.000
    H31      H        0.82660    0.10440    0.77420    1.000
    O41      O        0.85370    0.97980    0.93160    1.000
    H32      H        0.84030    0.99840    0.85260    1.000
    O42      O        0.73650    0.17490    0.85170    1.000
    O43      O        0.42390    0.20670    0.09720    1.000
    H33      H        0.43420    0.17620    0.16690    1.000
    O44      O        0.83130    0.97840    0.16300    1.000
    O45      O        0.85010    0.94920    0.11640    1.000
    Sr4      Sr       0.16601    0.59999    0.97219    1.000
    P13      P        0.02388    0.65303    0.03933    1.000
    O46      O        0.04230    0.62310    0.91910    1.000
    C13      C        0.93830    0.67320    0.98270    1.000
    P14      P        0.89082    0.58554    0.92063    1.000
    O47      O        0.04080    0.60050    0.16490    1.000
    C14      C        0.92120    0.73240    0.86400    1.000
    H34      H        0.92970    0.71110    0.78510    1.000
    H35      H        0.94660    0.77790    0.89570    1.000
    H36      H        0.87670    0.74540    0.83670    1.000
    P15      P        0.30876    0.67668    0.90840    1.000
    O48      O        0.05410    0.73390    0.08750    1.000
    H37      H        0.08880    0.73970    0.07170    1.000
    C15      C        0.33540    0.61010    0.05740    1.000
    P16      P        0.31366    0.50981    0.01660    1.000
    O49      O        0.90060    0.56260    0.78680    1.000
    C16      C        0.40750    0.61670    0.13760    1.000
    H38      H        0.41870    0.66980    0.15890    1.000
    H39      H        0.43050    0.59670    0.08100    1.000
    H40      H        0.41860    0.58780    0.22330    1.000
    O50      O        0.90740    0.52780    0.03710    1.000
    O51      O        0.81970    0.61070    0.88980    1.000
    O52      O        0.24350    0.50500    0.94100    1.000
    O53      O        0.33810    0.75390    0.95890    1.000
    O54      O        0.29840    0.63250    0.14430    1.000
    H41      H        0.30560    0.67770    0.16750    1.000
    O55      O        0.33790    0.64890    0.79710    1.000
    H42      H        0.32660    0.60440    0.77420    1.000
    O56      O        0.35370    0.47980    0.93160    1.000
    H43      H        0.34030    0.49840    0.85260    1.000
    O57      O        0.23650    0.67490    0.85170    1.000
    O58      O        0.92390    0.70670    0.09720    1.000
    H44      H        0.93420    0.67620    0.16690    1.000
    O59      O        0.33130    0.47840    0.16300    1.000
    O60      O        0.35010    0.44920    0.11640    1.000
    Sr5      Sr       0.66601    0.90001    0.47219    1.000
    P17      P        0.52388    0.84697    0.53933    1.000
    O61      O        0.54230    0.87690    0.41910    1.000
    C17      C        0.43830    0.82680    0.48270    1.000
    P18      P        0.39082    0.91446    0.42063    1.000
    O62      O        0.54080    0.89950    0.66490    1.000
    C18      C        0.42120    0.76760    0.36400    1.000
    H45      H        0.42970    0.78890    0.28510    1.000
    H46      H        0.44660    0.72210    0.39570    1.000
    H47      H        0.37670    0.75460    0.33670    1.000
    P19      P        0.80876    0.82332    0.40840    1.000
    O63      O        0.55410    0.76610    0.58750    1.000
    H48      H        0.58880    0.76030    0.57170    1.000
    C19      C        0.83540    0.88990    0.55740    1.000
    P20      P        0.81366    0.99019    0.51660    1.000
    O64      O        0.40060    0.93740    0.28680    1.000
    C20      C        0.90750    0.88330    0.63760    1.000
    H49      H        0.91870    0.83020    0.65890    1.000
    H50      H        0.93050    0.90330    0.58100    1.000
    H51      H        0.91860    0.91220    0.72330    1.000
    O65      O        0.40740    0.97220    0.53710    1.000
    O66      O        0.31970    0.88930    0.38980    1.000
    O67      O        0.74350    0.99500    0.44100    1.000
    O68      O        0.83810    0.74610    0.45890    1.000
    O69      O        0.79840    0.86750    0.64430    1.000
    H52      H        0.80560    0.82230    0.66750    1.000
    O70      O        0.83790    0.85110    0.29710    1.000
    H53      H        0.82660    0.89560    0.27420    1.000
    O71      O        0.85370    0.02020    0.43160    1.000
    H54      H        0.84030    0.00160    0.35260    1.000
    O72      O        0.73650    0.82510    0.35170    1.000
    O73      O        0.42390    0.79330    0.59720    1.000
    H55      H        0.43420    0.82380    0.66690    1.000
    O74      O        0.83130    0.02160    0.66300    1.000
    O75      O        0.85010    0.05080    0.61640    1.000
    Sr6      Sr       0.16601    0.40001    0.47219    1.000
    P21      P        0.02388    0.34697    0.53933    1.000
    O76      O        0.04230    0.37690    0.41910    1.000
    C21      C        0.93830    0.32680    0.48270    1.000
    P22      P        0.89082    0.41446    0.42063    1.000
    O77      O        0.04080    0.39950    0.66490    1.000
    C22      C        0.92120    0.26760    0.36400    1.000
    H56      H        0.92970    0.28890    0.28510    1.000
    H57      H        0.94660    0.22210    0.39570    1.000
    H58      H        0.87670    0.25460    0.33670    1.000
    P23      P        0.30876    0.32332    0.40840    1.000
    O78      O        0.05410    0.26610    0.58750    1.000
    H59      H        0.08880    0.26030    0.57170    1.000
    C23      C        0.33540    0.38990    0.55740    1.000
    P24      P        0.31366    0.49019    0.51660    1.000
    O79      O        0.90060    0.43740    0.28680    1.000
    C24      C        0.40750    0.38330    0.63760    1.000
    H60      H        0.41870    0.33020    0.65890    1.000
    H61      H        0.43050    0.40330    0.58100    1.000
    H62      H        0.41860    0.41220    0.72330    1.000
    O80      O        0.90740    0.47220    0.53710    1.000
    O81      O        0.81970    0.38930    0.38980    1.000
    O82      O        0.24350    0.49500    0.44100    1.000
    O83      O        0.33810    0.24610    0.45890    1.000
    O84      O        0.29840    0.36750    0.64430    1.000
    H63      H        0.30560    0.32230    0.66750    1.000
    O85      O        0.33790    0.35110    0.29710    1.000
    H64      H        0.32660    0.39560    0.27420    1.000
    O86      O        0.35370    0.52020    0.43160    1.000
    H65      H        0.34030    0.50160    0.35260    1.000
    O87      O        0.23650    0.32510    0.35170    1.000
    O88      O        0.92390    0.29330    0.59720    1.000
    H66      H        0.93420    0.32380    0.66690    1.000
    O89      O        0.33130    0.52160    0.66300    1.000
    O90      O        0.35010    0.55080    0.61640    1.000
    Sr7      Sr       0.33399    0.90001    0.02781    1.000
    P25      P        0.47612    0.84697    0.96067    1.000
    O91      O        0.45770    0.87690    0.08090    1.000
    C25      C        0.56170    0.82680    0.01730    1.000
    P26      P        0.60918    0.91446    0.07937    1.000
    O92      O        0.45920    0.89950    0.83510    1.000
    C26      C        0.57880    0.76760    0.13600    1.000
    H67      H        0.57030    0.78890    0.21490    1.000
    H68      H        0.55340    0.72210    0.10430    1.000
    H69      H        0.62330    0.75460    0.16330    1.000
    P27      P        0.19124    0.82332    0.09160    1.000
    O93      O        0.44590    0.76610    0.91250    1.000
    H70      H        0.41120    0.76030    0.92830    1.000
    C27      C        0.16460    0.88990    0.94260    1.000
    P28      P        0.18634    0.99019    0.98340    1.000
    O94      O        0.59940    0.93740    0.21320    1.000
    C28      C        0.09250    0.88330    0.86240    1.000
    H71      H        0.08130    0.83020    0.84110    1.000
    H72      H        0.06950    0.90330    0.91900    1.000
    H73      H        0.08140    0.91220    0.77670    1.000
    O95      O        0.59260    0.97220    0.96290    1.000
    O96      O        0.68030    0.88930    0.11020    1.000
    O97      O        0.25650    0.99500    0.05900    1.000
    O98      O        0.16190    0.74610    0.04110    1.000
    O99      O        0.20160    0.86750    0.85570    1.000
    H74      H        0.19440    0.82230    0.83250    1.000
    O100     O        0.16210    0.85110    0.20290    1.000
    H75      H        0.17340    0.89560    0.22580    1.000
    O101     O        0.14630    0.02020    0.06840    1.000
    H76      H        0.15970    0.00160    0.14740    1.000
    O102     O        0.26350    0.82510    0.14830    1.000
    O103     O        0.57610    0.79330    0.90280    1.000
    H77      H        0.56580    0.82380    0.83310    1.000
    O104     O        0.16870    0.02160    0.83700    1.000
    O105     O        0.14990    0.05080    0.88360    1.000
    Sr8      Sr       0.83399    0.40001    0.02781    1.000
    P29      P        0.97612    0.34697    0.96067    1.000
    O106     O        0.95770    0.37690    0.08090    1.000
    C29      C        0.06170    0.32680    0.01730    1.000
    P30      P        0.10918    0.41446    0.07937    1.000
    O107     O        0.95920    0.39950    0.83510    1.000
    C30      C        0.07880    0.26760    0.13600    1.000
    H78      H        0.07030    0.28890    0.21490    1.000
    H79      H        0.05340    0.22210    0.10430    1.000
    H80      H        0.12330    0.25460    0.16330    1.000
    P31      P        0.69124    0.32332    0.09160    1.000
    O108     O        0.94590    0.26610    0.91250    1.000
    H81      H        0.91120    0.26030    0.92830    1.000
    C31      C        0.66460    0.38990    0.94260    1.000
    P32      P        0.68634    0.49019    0.98340    1.000
    O109     O        0.09940    0.43740    0.21320    1.000
    C32      C        0.59250    0.38330    0.86240    1.000
    H82      H        0.58130    0.33020    0.84110    1.000
    H83      H        0.56950    0.40330    0.91900    1.000
    H84      H        0.58140    0.41220    0.77670    1.000
    O110     O        0.09260    0.47220    0.96290    1.000
    O111     O        0.18030    0.38930    0.11020    1.000
    O112     O        0.75650    0.49500    0.05900    1.000
    O113     O        0.66190    0.24610    0.04110    1.000
    O114     O        0.70160    0.36750    0.85570    1.000
    H85      H        0.69440    0.32230    0.83250    1.000
    O115     O        0.66210    0.35110    0.20290    1.000
    H86      H        0.67340    0.39560    0.22580    1.000
    O116     O        0.64630    0.52020    0.06840    1.000
    H87      H        0.65970    0.50160    0.14740    1.000
    O117     O        0.76350    0.32510    0.14830    1.000
    O118     O        0.07610    0.29330    0.90280    1.000
    H88      H        0.06580    0.32380    0.83310    1.000
    O119     O        0.66870    0.52160    0.83700    1.000
    O120     O        0.64990    0.55080    0.88360    1.000
    Sr9      Sr       0.50000    0.01286    0.75000    1.000
    Sr10     Sr       0.00000    0.51286    0.75000    1.000
    Sr11     Sr       0.50000    0.98714    0.25000    1.000
    Sr12     Sr       0.00000    0.48714    0.25000    1.000
