# CIF file generated by openbabel 3.1.0, see https://openbabel.org
data_I
_chemical_name_common 'image0'
_cell_length_a 19.2347
_cell_length_b 13.2563
_cell_length_c 16.7559
_cell_angle_alpha 90
_cell_angle_beta 123.909
_cell_angle_gamma 90
_space_group_name_H-M_alt 'P 1'
_space_group_name_Hall 'P 1'
loop_
    _symmetry_equiv_pos_as_xyz
    x,y,z
loop_
    _atom_site_label
    _atom_site_type_symbol
    _atom_site_fract_x
    _atom_site_fract_y
    _atom_site_fract_z
    _atom_site_occupancy
    Ce1      Ce       0.22168    0.42268    0.26802    1.000
    O1       O        0.26909    0.25668    0.23560    1.000
    O2       O        0.24354    0.09614    0.18890    1.000
    O3       O        0.86840    0.11740    0.93041    1.000
    O4       O        0.86056    0.27500    0.97210    1.000
    H1       H        0.81010    0.26570    0.93430    1.000
    O5       O        0.20838    0.27050    0.36040    1.000
    O6       O        0.18045    0.11580    0.38470    1.000
    N1       N        0.10629    0.29930    0.13710    1.000
    N2       N        0.02321    0.29980    0.08120    1.000
    H2       H        0.99280    0.35190    0.07160    1.000
    N3       N        0.04200    0.32380    0.27700    1.000
    H3       H        0.07360    0.37630    0.29710    1.000
    C1       C        0.12920    0.20520    0.13220    1.000
    C2       C        0.05990    0.14450    0.07290    1.000
    H4       H        0.05920    0.07680    0.05800    1.000
    C3       C        0.99220    0.20830    0.04100    1.000
    C4       C        0.22070    0.18360    0.19020    1.000
    C5       C        0.90120    0.19470    0.97550    1.000
    C6       C        0.15820    0.20190    0.35110    1.000
    C7       C        0.06840    0.22780    0.29410    1.000
    Ce2      Ce       0.72168    0.92268    0.26802    1.000
    O7       O        0.76909    0.75668    0.23560    1.000
    O8       O        0.74354    0.59614    0.18890    1.000
    O9       O        0.36840    0.61740    0.93041    1.000
    O10      O        0.36056    0.77500    0.97210    1.000
    H5       H        0.31010    0.76570    0.93430    1.000
    O11      O        0.70838    0.77050    0.36040    1.000
    O12      O        0.68045    0.61580    0.38470    1.000
    N4       N        0.60629    0.79930    0.13710    1.000
    N5       N        0.52321    0.79980    0.08120    1.000
    H6       H        0.49280    0.85190    0.07160    1.000
    N6       N        0.54200    0.82380    0.27700    1.000
    H7       H        0.57360    0.87630    0.29710    1.000
    C8       C        0.62920    0.70520    0.13220    1.000
    C9       C        0.55990    0.64450    0.07290    1.000
    H8       H        0.55920    0.57680    0.05800    1.000
    C10      C        0.49220    0.70830    0.04100    1.000
    C11      C        0.72070    0.68360    0.19020    1.000
    C12      C        0.40120    0.69470    0.97550    1.000
    C13      C        0.65820    0.70190    0.35110    1.000
    C14      C        0.56840    0.72780    0.29410    1.000
    Ce3      Ce       0.77832    0.42268    0.23198    1.000
    O13      O        0.73091    0.25668    0.26440    1.000
    O14      O        0.75646    0.09614    0.31110    1.000
    O15      O        0.13160    0.11740    0.56959    1.000
    O16      O        0.13944    0.27500    0.52790    1.000
    H9       H        0.18990    0.26570    0.56570    1.000
    O17      O        0.79162    0.27050    0.13960    1.000
    O18      O        0.81955    0.11580    0.11530    1.000
    N7       N        0.89371    0.29930    0.36290    1.000
    N8       N        0.97679    0.29980    0.41880    1.000
    H10      H        0.00720    0.35190    0.42840    1.000
    N9       N        0.95800    0.32380    0.22300    1.000
    H11      H        0.92640    0.37630    0.20290    1.000
    C15      C        0.87080    0.20520    0.36780    1.000
    C16      C        0.94010    0.14450    0.42710    1.000
    H12      H        0.94080    0.07680    0.44200    1.000
    C17      C        0.00780    0.20830    0.45900    1.000
    C18      C        0.77930    0.18360    0.30980    1.000
    C19      C        0.09880    0.19470    0.52450    1.000
    C20      C        0.84180    0.20190    0.14890    1.000
    C21      C        0.93160    0.22780    0.20590    1.000
    Ce4      Ce       0.27832    0.92268    0.23198    1.000
    O19      O        0.23091    0.75668    0.26440    1.000
    O20      O        0.25646    0.59614    0.31110    1.000
    O21      O        0.63160    0.61740    0.56959    1.000
    O22      O        0.63944    0.77500    0.52790    1.000
    H13      H        0.68990    0.76570    0.56570    1.000
    O23      O        0.29162    0.77050    0.13960    1.000
    O24      O        0.31955    0.61580    0.11530    1.000
    N10      N        0.39371    0.79930    0.36290    1.000
    N11      N        0.47679    0.79980    0.41880    1.000
    H14      H        0.50720    0.85190    0.42840    1.000
    N12      N        0.45800    0.82380    0.22300    1.000
    H15      H        0.42640    0.87630    0.20290    1.000
    C22      C        0.37080    0.70520    0.36780    1.000
    C23      C        0.44010    0.64450    0.42710    1.000
    H16      H        0.44080    0.57680    0.44200    1.000
    C24      C        0.50780    0.70830    0.45900    1.000
    C25      C        0.27930    0.68360    0.30980    1.000
    C26      C        0.59880    0.69470    0.52450    1.000
    C27      C        0.34180    0.70190    0.14890    1.000
    C28      C        0.43160    0.72780    0.20590    1.000
    Ce5      Ce       0.77832    0.57732    0.73198    1.000
    O25      O        0.73091    0.74332    0.76440    1.000
    O26      O        0.75646    0.90386    0.81110    1.000
    O27      O        0.13160    0.88260    0.06959    1.000
    O28      O        0.13944    0.72500    0.02790    1.000
    H17      H        0.18990    0.73430    0.06570    1.000
    O29      O        0.79162    0.72950    0.63960    1.000
    O30      O        0.81955    0.88420    0.61530    1.000
    N13      N        0.89371    0.70070    0.86290    1.000
    N14      N        0.97679    0.70020    0.91880    1.000
    H18      H        0.00720    0.64810    0.92840    1.000
    N15      N        0.95800    0.67620    0.72300    1.000
    H19      H        0.92640    0.62370    0.70290    1.000
    C29      C        0.87080    0.79480    0.86780    1.000
    C30      C        0.94010    0.85550    0.92710    1.000
    H20      H        0.94080    0.92320    0.94200    1.000
    C31      C        0.00780    0.79170    0.95900    1.000
    C32      C        0.77930    0.81640    0.80980    1.000
    C33      C        0.09880    0.80530    0.02450    1.000
    C34      C        0.84180    0.79810    0.64890    1.000
    C35      C        0.93160    0.77220    0.70590    1.000
    Ce6      Ce       0.27832    0.07732    0.73198    1.000
    O31      O        0.23091    0.24332    0.76440    1.000
    O32      O        0.25646    0.40386    0.81110    1.000
    O33      O        0.63160    0.38260    0.06959    1.000
    O34      O        0.63944    0.22500    0.02790    1.000
    H21      H        0.68990    0.23430    0.06570    1.000
    O35      O        0.29162    0.22950    0.63960    1.000
    O36      O        0.31955    0.38420    0.61530    1.000
    N16      N        0.39371    0.20070    0.86290    1.000
    N17      N        0.47679    0.20020    0.91880    1.000
    H22      H        0.50720    0.14810    0.92840    1.000
    N18      N        0.45800    0.17620    0.72300    1.000
    H23      H        0.42640    0.12370    0.70290    1.000
    C36      C        0.37080    0.29480    0.86780    1.000
    C37      C        0.44010    0.35550    0.92710    1.000
    H24      H        0.44080    0.42320    0.94200    1.000
    C38      C        0.50780    0.29170    0.95900    1.000
    C39      C        0.27930    0.31640    0.80980    1.000
    C40      C        0.59880    0.30530    0.02450    1.000
    C41      C        0.34180    0.29810    0.64890    1.000
    C42      C        0.43160    0.27220    0.70590    1.000
    Ce7      Ce       0.22168    0.57732    0.76802    1.000
    O37      O        0.26909    0.74332    0.73560    1.000
    O38      O        0.24354    0.90386    0.68890    1.000
    O39      O        0.86840    0.88260    0.43041    1.000
    O40      O        0.86056    0.72500    0.47210    1.000
    H25      H        0.81010    0.73430    0.43430    1.000
    O41      O        0.20838    0.72950    0.86040    1.000
    O42      O        0.18045    0.88420    0.88470    1.000
    N19      N        0.10629    0.70070    0.63710    1.000
    N20      N        0.02321    0.70020    0.58120    1.000
    H26      H        0.99280    0.64810    0.57160    1.000
    N21      N        0.04200    0.67620    0.77700    1.000
    H27      H        0.07360    0.62370    0.79710    1.000
    C43      C        0.12920    0.79480    0.63220    1.000
    C44      C        0.05990    0.85550    0.57290    1.000
    H28      H        0.05920    0.92320    0.55800    1.000
    C45      C        0.99220    0.79170    0.54100    1.000
    C46      C        0.22070    0.81640    0.69020    1.000
    C47      C        0.90120    0.80530    0.47550    1.000
    C48      C        0.15820    0.79810    0.85110    1.000
    C49      C        0.06840    0.77220    0.79410    1.000
    Ce8      Ce       0.72168    0.07732    0.76802    1.000
    O43      O        0.76909    0.24332    0.73560    1.000
    O44      O        0.74354    0.40386    0.68890    1.000
    O45      O        0.36840    0.38260    0.43041    1.000
    O46      O        0.36056    0.22500    0.47210    1.000
    H29      H        0.31010    0.23430    0.43430    1.000
    O47      O        0.70838    0.22950    0.86040    1.000
    O48      O        0.68045    0.38420    0.88470    1.000
    N22      N        0.60629    0.20070    0.63710    1.000
    N23      N        0.52321    0.20020    0.58120    1.000
    H30      H        0.49280    0.14810    0.57160    1.000
    N24      N        0.54200    0.17620    0.77700    1.000
    H31      H        0.57360    0.12370    0.79710    1.000
    C50      C        0.62920    0.29480    0.63220    1.000
    C51      C        0.55990    0.35550    0.57290    1.000
    H32      H        0.55920    0.42320    0.55800    1.000
    C52      C        0.49220    0.29170    0.54100    1.000
    C53      C        0.72070    0.31640    0.69020    1.000
    C54      C        0.40120    0.30530    0.47550    1.000
    C55      C        0.65820    0.29810    0.85110    1.000
    C56      C        0.56840    0.27220    0.79410    1.000
    C57      C        0.00000    0.16460    0.25000    1.000
    H33      H        0.00000    0.09440    0.25000    1.000
    C58      C        0.50000    0.66460    0.25000    1.000
    H34      H        0.50000    0.59440    0.25000    1.000
    C59      C        0.00000    0.83540    0.75000    1.000
    H35      H        0.00000    0.90560    0.75000    1.000
    C60      C        0.50000    0.33540    0.75000    1.000
    H36      H        0.50000    0.40560    0.75000    1.000
