# CIF file generated by openbabel 3.1.0, see https://openbabel.org
data_I
_chemical_name_common 'WUQRAC_clean_h'
_cell_length_a 35.1571
_cell_length_b 35.1571
_cell_length_c 35.1571
_cell_angle_alpha 90
_cell_angle_beta 90
_cell_angle_gamma 90
_space_group_name_H-M_alt 'P 1'
_space_group_name_Hall 'P 1'
loop_
    _symmetry_equiv_pos_as_xyz
    x,y,z
loop_
    _atom_site_label
    _atom_site_type_symbol
    _atom_site_fract_x
    _atom_site_fract_y
    _atom_site_fract_z
    _atom_site_occupancy
    C1       C        0.63900    0.46800    0.30000    1.000
    C2       C        0.57800    0.47700    0.28200    1.000
    C3       C        0.68400    0.50100    0.44000    1.000
    C4       C        0.69300    0.53500    0.45400    1.000
    C5       C        0.70600    0.56000    0.42800    1.000
    C6       C        0.70400    0.55200    0.38900    1.000
    C7       C        0.69500    0.51900    0.37400    1.000
    C8       C        0.61200    0.39800    0.42100    1.000
    C9       C        0.58000    0.40000    0.44000    1.000
    C10      C        0.55200    0.42600    0.43200    1.000
    C11      C        0.56100    0.45300    0.40900    1.000
    C12      C        0.59600    0.45400    0.39800    1.000
    C13      C        0.53400    0.47700    0.39500    1.000
    N1       N        0.64800    0.45300    0.32400    1.000
    N2       N        0.55500    0.46900    0.29900    1.000
    N3       N        0.69100    0.48900    0.40000    1.000
    N4       N        0.62400    0.42400    0.40600    1.000
    H1       H        0.66995    0.47883    0.45904    1.000
    H2       H        0.68944    0.54095    0.48568    1.000
    H3       H        0.71887    0.58817    0.43761    1.000
    H4       H        0.71050    0.57523    0.36733    1.000
    H5       H        0.69101    0.51631    0.34193    1.000
    H6       H        0.62816    0.36994    0.41937    1.000
    H7       H        0.57438    0.37951    0.46450    1.000
    H8       H        0.52269    0.42294    0.44552    1.000
    H9       H        0.60691    0.47932    0.38093    1.000
    H10      H        0.53278    0.48326    0.36321    1.000
    H11      H        0.51262    0.49083    0.41508    1.000
    C14      C        0.13900    0.96800    0.80000    1.000
    C15      C        0.07800    0.97700    0.78200    1.000
    C16      C        0.18400    0.00100    0.94000    1.000
    C17      C        0.19300    0.03500    0.95400    1.000
    C18      C        0.20600    0.06000    0.92800    1.000
    C19      C        0.20400    0.05200    0.88900    1.000
    C20      C        0.19500    0.01900    0.87400    1.000
    C21      C        0.11200    0.89800    0.92100    1.000
    C22      C        0.08000    0.90000    0.94000    1.000
    C23      C        0.05200    0.92600    0.93200    1.000
    C24      C        0.06100    0.95300    0.90900    1.000
    C25      C        0.09600    0.95400    0.89800    1.000
    C26      C        0.03400    0.97700    0.89500    1.000
    N5       N        0.14800    0.95300    0.82400    1.000
    N6       N        0.05500    0.96900    0.79900    1.000
    N7       N        0.19100    0.98900    0.90000    1.000
    N8       N        0.12400    0.92400    0.90600    1.000
    H12      H        0.16995    0.97883    0.95904    1.000
    H13      H        0.18944    0.04095    0.98568    1.000
    H14      H        0.21887    0.08817    0.93761    1.000
    H15      H        0.21050    0.07523    0.86733    1.000
    H16      H        0.19101    0.01631    0.84193    1.000
    H17      H        0.12816    0.86994    0.91937    1.000
    H18      H        0.07438    0.87951    0.96450    1.000
    H19      H        0.02269    0.92294    0.94552    1.000
    H20      H        0.10691    0.97932    0.88093    1.000
    H21      H        0.03278    0.98326    0.86321    1.000
    H22      H        0.01262    0.99083    0.91508    1.000
    C27      C        0.86100    0.53200    0.80000    1.000
    C28      C        0.92200    0.52300    0.78200    1.000
    C29      C        0.81600    0.49900    0.94000    1.000
    C30      C        0.80700    0.46500    0.95400    1.000
    C31      C        0.79400    0.44000    0.92800    1.000
    C32      C        0.79600    0.44800    0.88900    1.000
    C33      C        0.80500    0.48100    0.87400    1.000
    C34      C        0.88800    0.60200    0.92100    1.000
    C35      C        0.92000    0.60000    0.94000    1.000
    C36      C        0.94800    0.57400    0.93200    1.000
    C37      C        0.93900    0.54700    0.90900    1.000
    C38      C        0.90400    0.54600    0.89800    1.000
    C39      C        0.96600    0.52300    0.89500    1.000
    N9       N        0.85200    0.54700    0.82400    1.000
    N10      N        0.94500    0.53100    0.79900    1.000
    N11      N        0.80900    0.51100    0.90000    1.000
    N12      N        0.87600    0.57600    0.90600    1.000
    H23      H        0.83005    0.52117    0.95904    1.000
    H24      H        0.81056    0.45905    0.98568    1.000
    H25      H        0.78113    0.41183    0.93761    1.000
    H26      H        0.78950    0.42477    0.86733    1.000
    H27      H        0.80899    0.48369    0.84193    1.000
    H28      H        0.87184    0.63006    0.91937    1.000
    H29      H        0.92562    0.62049    0.96450    1.000
    H30      H        0.97731    0.57706    0.94552    1.000
    H31      H        0.89309    0.52068    0.88093    1.000
    H32      H        0.96722    0.51674    0.86321    1.000
    H33      H        0.98738    0.50917    0.91508    1.000
    C40      C        0.36100    0.03200    0.30000    1.000
    C41      C        0.42200    0.02300    0.28200    1.000
    C42      C        0.31600    0.99900    0.44000    1.000
    C43      C        0.30700    0.96500    0.45400    1.000
    C44      C        0.29400    0.94000    0.42800    1.000
    C45      C        0.29600    0.94800    0.38900    1.000
    C46      C        0.30500    0.98100    0.37400    1.000
    C47      C        0.38800    0.10200    0.42100    1.000
    C48      C        0.42000    0.10000    0.44000    1.000
    C49      C        0.44800    0.07400    0.43200    1.000
    C50      C        0.43900    0.04700    0.40900    1.000
    C51      C        0.40400    0.04600    0.39800    1.000
    C52      C        0.46600    0.02300    0.39500    1.000
    N13      N        0.35200    0.04700    0.32400    1.000
    N14      N        0.44500    0.03100    0.29900    1.000
    N15      N        0.30900    0.01100    0.40000    1.000
    N16      N        0.37600    0.07600    0.40600    1.000
    H34      H        0.33005    0.02117    0.45904    1.000
    H35      H        0.31056    0.95905    0.48568    1.000
    H36      H        0.28113    0.91183    0.43761    1.000
    H37      H        0.28950    0.92477    0.36733    1.000
    H38      H        0.30899    0.98369    0.34193    1.000
    H39      H        0.37184    0.13006    0.41937    1.000
    H40      H        0.42562    0.12049    0.46450    1.000
    H41      H        0.47731    0.07706    0.44552    1.000
    H42      H        0.39309    0.02068    0.38093    1.000
    H43      H        0.46722    0.01674    0.36321    1.000
    H44      H        0.48738    0.00917    0.41508    1.000
    C53      C        0.36100    0.96800    0.20000    1.000
    C54      C        0.42200    0.97700    0.21800    1.000
    C55      C        0.31600    0.00100    0.06000    1.000
    C56      C        0.30700    0.03500    0.04600    1.000
    C57      C        0.29400    0.06000    0.07200    1.000
    C58      C        0.29600    0.05200    0.11100    1.000
    C59      C        0.30500    0.01900    0.12600    1.000
    C60      C        0.38800    0.89800    0.07900    1.000
    C61      C        0.42000    0.90000    0.06000    1.000
    C62      C        0.44800    0.92600    0.06800    1.000
    C63      C        0.43900    0.95300    0.09100    1.000
    C64      C        0.40400    0.95400    0.10200    1.000
    C65      C        0.46600    0.97700    0.10500    1.000
    N17      N        0.35200    0.95300    0.17600    1.000
    N18      N        0.44500    0.96900    0.20100    1.000
    N19      N        0.30900    0.98900    0.10000    1.000
    N20      N        0.37600    0.92400    0.09400    1.000
    H45      H        0.33005    0.97883    0.04096    1.000
    H46      H        0.31056    0.04095    0.01432    1.000
    H47      H        0.28113    0.08817    0.06239    1.000
    H48      H        0.28950    0.07523    0.13267    1.000
    H49      H        0.30899    0.01631    0.15807    1.000
    H50      H        0.37184    0.86994    0.08063    1.000
    H51      H        0.42562    0.87951    0.03550    1.000
    H52      H        0.47731    0.92294    0.05448    1.000
    H53      H        0.39309    0.97932    0.11907    1.000
    H54      H        0.46722    0.98326    0.13679    1.000
    H55      H        0.48738    0.99083    0.08492    1.000
    C66      C        0.86100    0.46800    0.70000    1.000
    C67      C        0.92200    0.47700    0.71800    1.000
    C68      C        0.81600    0.50100    0.56000    1.000
    C69      C        0.80700    0.53500    0.54600    1.000
    C70      C        0.79400    0.56000    0.57200    1.000
    C71      C        0.79600    0.55200    0.61100    1.000
    C72      C        0.80500    0.51900    0.62600    1.000
    C73      C        0.88800    0.39800    0.57900    1.000
    C74      C        0.92000    0.40000    0.56000    1.000
    C75      C        0.94800    0.42600    0.56800    1.000
    C76      C        0.93900    0.45300    0.59100    1.000
    C77      C        0.90400    0.45400    0.60200    1.000
    C78      C        0.96600    0.47700    0.60500    1.000
    N21      N        0.85200    0.45300    0.67600    1.000
    N22      N        0.94500    0.46900    0.70100    1.000
    N23      N        0.80900    0.48900    0.60000    1.000
    N24      N        0.87600    0.42400    0.59400    1.000
    H56      H        0.83005    0.47883    0.54096    1.000
    H57      H        0.81056    0.54095    0.51432    1.000
    H58      H        0.78113    0.58817    0.56239    1.000
    H59      H        0.78950    0.57523    0.63267    1.000
    H60      H        0.80899    0.51631    0.65807    1.000
    H61      H        0.87184    0.36994    0.58063    1.000
    H62      H        0.92562    0.37951    0.53550    1.000
    H63      H        0.97731    0.42294    0.55448    1.000
    H64      H        0.89309    0.47932    0.61907    1.000
    H65      H        0.96722    0.48326    0.63679    1.000
    H66      H        0.98738    0.49083    0.58492    1.000
    C79      C        0.13900    0.03200    0.70000    1.000
    C80      C        0.07800    0.02300    0.71800    1.000
    C81      C        0.18400    0.99900    0.56000    1.000
    C82      C        0.19300    0.96500    0.54600    1.000
    C83      C        0.20600    0.94000    0.57200    1.000
    C84      C        0.20400    0.94800    0.61100    1.000
    C85      C        0.19500    0.98100    0.62600    1.000
    C86      C        0.11200    0.10200    0.57900    1.000
    C87      C        0.08000    0.10000    0.56000    1.000
    C88      C        0.05200    0.07400    0.56800    1.000
    C89      C        0.06100    0.04700    0.59100    1.000
    C90      C        0.09600    0.04600    0.60200    1.000
    C91      C        0.03400    0.02300    0.60500    1.000
    N25      N        0.14800    0.04700    0.67600    1.000
    N26      N        0.05500    0.03100    0.70100    1.000
    N27      N        0.19100    0.01100    0.60000    1.000
    N28      N        0.12400    0.07600    0.59400    1.000
    H67      H        0.16995    0.02117    0.54096    1.000
    H68      H        0.18944    0.95905    0.51432    1.000
    H69      H        0.21887    0.91183    0.56239    1.000
    H70      H        0.21050    0.92477    0.63267    1.000
    H71      H        0.19101    0.98369    0.65807    1.000
    H72      H        0.12816    0.13006    0.58063    1.000
    H73      H        0.07438    0.12049    0.53550    1.000
    H74      H        0.02269    0.07706    0.55448    1.000
    H75      H        0.10691    0.02068    0.61907    1.000
    H76      H        0.03278    0.01674    0.63679    1.000
    H77      H        0.01262    0.00917    0.58492    1.000
    C92      C        0.63900    0.53200    0.20000    1.000
    C93      C        0.57800    0.52300    0.21800    1.000
    C94      C        0.68400    0.49900    0.06000    1.000
    C95      C        0.69300    0.46500    0.04600    1.000
    C96      C        0.70600    0.44000    0.07200    1.000
    C97      C        0.70400    0.44800    0.11100    1.000
    C98      C        0.69500    0.48100    0.12600    1.000
    C99      C        0.61200    0.60200    0.07900    1.000
    C100     C        0.58000    0.60000    0.06000    1.000
    C101     C        0.55200    0.57400    0.06800    1.000
    C102     C        0.56100    0.54700    0.09100    1.000
    C103     C        0.59600    0.54600    0.10200    1.000
    C104     C        0.53400    0.52300    0.10500    1.000
    N29      N        0.64800    0.54700    0.17600    1.000
    N30      N        0.55500    0.53100    0.20100    1.000
    N31      N        0.69100    0.51100    0.10000    1.000
    N32      N        0.62400    0.57600    0.09400    1.000
    H78      H        0.66995    0.52117    0.04096    1.000
    H79      H        0.68944    0.45905    0.01432    1.000
    H80      H        0.71887    0.41183    0.06239    1.000
    H81      H        0.71050    0.42477    0.13267    1.000
    H82      H        0.69101    0.48369    0.15807    1.000
    H83      H        0.62816    0.63006    0.08063    1.000
    H84      H        0.57438    0.62049    0.03550    1.000
    H85      H        0.52269    0.57706    0.05448    1.000
    H86      H        0.60691    0.52068    0.11907    1.000
    H87      H        0.53278    0.51674    0.13679    1.000
    H88      H        0.51262    0.50917    0.08492    1.000
    C105     C        0.30000    0.63900    0.46800    1.000
    C106     C        0.28200    0.57800    0.47700    1.000
    C107     C        0.44000    0.68400    0.50100    1.000
    C108     C        0.45400    0.69300    0.53500    1.000
    C109     C        0.42800    0.70600    0.56000    1.000
    C110     C        0.38900    0.70400    0.55200    1.000
    C111     C        0.37400    0.69500    0.51900    1.000
    C112     C        0.42100    0.61200    0.39800    1.000
    C113     C        0.44000    0.58000    0.40000    1.000
    C114     C        0.43200    0.55200    0.42600    1.000
    C115     C        0.40900    0.56100    0.45300    1.000
    C116     C        0.39800    0.59600    0.45400    1.000
    C117     C        0.39500    0.53400    0.47700    1.000
    N33      N        0.32400    0.64800    0.45300    1.000
    N34      N        0.29900    0.55500    0.46900    1.000
    N35      N        0.40000    0.69100    0.48900    1.000
    N36      N        0.40600    0.62400    0.42400    1.000
    H89      H        0.45904    0.66995    0.47883    1.000
    H90      H        0.48568    0.68944    0.54095    1.000
    H91      H        0.43761    0.71887    0.58817    1.000
    H92      H        0.36733    0.71050    0.57523    1.000
    H93      H        0.34193    0.69101    0.51631    1.000
    H94      H        0.41937    0.62816    0.36994    1.000
    H95      H        0.46450    0.57438    0.37951    1.000
    H96      H        0.44552    0.52269    0.42294    1.000
    H97      H        0.38093    0.60691    0.47932    1.000
    H98      H        0.36321    0.53278    0.48326    1.000
    H99      H        0.41508    0.51262    0.49083    1.000
    C118     C        0.80000    0.13900    0.96800    1.000
    C119     C        0.78200    0.07800    0.97700    1.000
    C120     C        0.94000    0.18400    0.00100    1.000
    C121     C        0.95400    0.19300    0.03500    1.000
    C122     C        0.92800    0.20600    0.06000    1.000
    C123     C        0.88900    0.20400    0.05200    1.000
    C124     C        0.87400    0.19500    0.01900    1.000
    C125     C        0.92100    0.11200    0.89800    1.000
    C126     C        0.94000    0.08000    0.90000    1.000
    C127     C        0.93200    0.05200    0.92600    1.000
    C128     C        0.90900    0.06100    0.95300    1.000
    C129     C        0.89800    0.09600    0.95400    1.000
    C130     C        0.89500    0.03400    0.97700    1.000
    N37      N        0.82400    0.14800    0.95300    1.000
    N38      N        0.79900    0.05500    0.96900    1.000
    N39      N        0.90000    0.19100    0.98900    1.000
    N40      N        0.90600    0.12400    0.92400    1.000
    H100     H        0.95904    0.16995    0.97883    1.000
    H101     H        0.98568    0.18944    0.04095    1.000
    H102     H        0.93761    0.21887    0.08817    1.000
    H103     H        0.86733    0.21050    0.07523    1.000
    H104     H        0.84193    0.19101    0.01631    1.000
    H105     H        0.91937    0.12816    0.86994    1.000
    H106     H        0.96450    0.07438    0.87951    1.000
    H107     H        0.94552    0.02269    0.92294    1.000
    H108     H        0.88093    0.10691    0.97932    1.000
    H109     H        0.86321    0.03278    0.98326    1.000
    H110     H        0.91508    0.01262    0.99083    1.000
    C131     C        0.80000    0.86100    0.53200    1.000
    C132     C        0.78200    0.92200    0.52300    1.000
    C133     C        0.94000    0.81600    0.49900    1.000
    C134     C        0.95400    0.80700    0.46500    1.000
    C135     C        0.92800    0.79400    0.44000    1.000
    C136     C        0.88900    0.79600    0.44800    1.000
    C137     C        0.87400    0.80500    0.48100    1.000
    C138     C        0.92100    0.88800    0.60200    1.000
    C139     C        0.94000    0.92000    0.60000    1.000
    C140     C        0.93200    0.94800    0.57400    1.000
    C141     C        0.90900    0.93900    0.54700    1.000
    C142     C        0.89800    0.90400    0.54600    1.000
    C143     C        0.89500    0.96600    0.52300    1.000
    N41      N        0.82400    0.85200    0.54700    1.000
    N42      N        0.79900    0.94500    0.53100    1.000
    N43      N        0.90000    0.80900    0.51100    1.000
    N44      N        0.90600    0.87600    0.57600    1.000
    H111     H        0.95904    0.83005    0.52117    1.000
    H112     H        0.98568    0.81056    0.45905    1.000
    H113     H        0.93761    0.78113    0.41183    1.000
    H114     H        0.86733    0.78950    0.42477    1.000
    H115     H        0.84193    0.80899    0.48369    1.000
    H116     H        0.91937    0.87184    0.63006    1.000
    H117     H        0.96450    0.92562    0.62049    1.000
    H118     H        0.94552    0.97731    0.57706    1.000
    H119     H        0.88093    0.89309    0.52068    1.000
    H120     H        0.86321    0.96722    0.51674    1.000
    H121     H        0.91508    0.98738    0.50917    1.000
    C144     C        0.30000    0.36100    0.03200    1.000
    C145     C        0.28200    0.42200    0.02300    1.000
    C146     C        0.44000    0.31600    0.99900    1.000
    C147     C        0.45400    0.30700    0.96500    1.000
    C148     C        0.42800    0.29400    0.94000    1.000
    C149     C        0.38900    0.29600    0.94800    1.000
    C150     C        0.37400    0.30500    0.98100    1.000
    C151     C        0.42100    0.38800    0.10200    1.000
    C152     C        0.44000    0.42000    0.10000    1.000
    C153     C        0.43200    0.44800    0.07400    1.000
    C154     C        0.40900    0.43900    0.04700    1.000
    C155     C        0.39800    0.40400    0.04600    1.000
    C156     C        0.39500    0.46600    0.02300    1.000
    N45      N        0.32400    0.35200    0.04700    1.000
    N46      N        0.29900    0.44500    0.03100    1.000
    N47      N        0.40000    0.30900    0.01100    1.000
    N48      N        0.40600    0.37600    0.07600    1.000
    H122     H        0.45904    0.33005    0.02117    1.000
    H123     H        0.48568    0.31056    0.95905    1.000
    H124     H        0.43761    0.28113    0.91183    1.000
    H125     H        0.36733    0.28950    0.92477    1.000
    H126     H        0.34193    0.30899    0.98369    1.000
    H127     H        0.41937    0.37184    0.13006    1.000
    H128     H        0.46450    0.42562    0.12049    1.000
    H129     H        0.44552    0.47731    0.07706    1.000
    H130     H        0.38093    0.39309    0.02068    1.000
    H131     H        0.36321    0.46722    0.01674    1.000
    H132     H        0.41508    0.48738    0.00917    1.000
    C157     C        0.20000    0.36100    0.96800    1.000
    C158     C        0.21800    0.42200    0.97700    1.000
    C159     C        0.06000    0.31600    0.00100    1.000
    C160     C        0.04600    0.30700    0.03500    1.000
    C161     C        0.07200    0.29400    0.06000    1.000
    C162     C        0.11100    0.29600    0.05200    1.000
    C163     C        0.12600    0.30500    0.01900    1.000
    C164     C        0.07900    0.38800    0.89800    1.000
    C165     C        0.06000    0.42000    0.90000    1.000
    C166     C        0.06800    0.44800    0.92600    1.000
    C167     C        0.09100    0.43900    0.95300    1.000
    C168     C        0.10200    0.40400    0.95400    1.000
    C169     C        0.10500    0.46600    0.97700    1.000
    N49      N        0.17600    0.35200    0.95300    1.000
    N50      N        0.20100    0.44500    0.96900    1.000
    N51      N        0.10000    0.30900    0.98900    1.000
    N52      N        0.09400    0.37600    0.92400    1.000
    H133     H        0.04096    0.33005    0.97883    1.000
    H134     H        0.01432    0.31056    0.04095    1.000
    H135     H        0.06239    0.28113    0.08817    1.000
    H136     H        0.13267    0.28950    0.07523    1.000
    H137     H        0.15807    0.30899    0.01631    1.000
    H138     H        0.08063    0.37184    0.86994    1.000
    H139     H        0.03550    0.42562    0.87951    1.000
    H140     H        0.05448    0.47731    0.92294    1.000
    H141     H        0.11907    0.39309    0.97932    1.000
    H142     H        0.13679    0.46722    0.98326    1.000
    H143     H        0.08492    0.48738    0.99083    1.000
    C170     C        0.70000    0.86100    0.46800    1.000
    C171     C        0.71800    0.92200    0.47700    1.000
    C172     C        0.56000    0.81600    0.50100    1.000
    C173     C        0.54600    0.80700    0.53500    1.000
    C174     C        0.57200    0.79400    0.56000    1.000
    C175     C        0.61100    0.79600    0.55200    1.000
    C176     C        0.62600    0.80500    0.51900    1.000
    C177     C        0.57900    0.88800    0.39800    1.000
    C178     C        0.56000    0.92000    0.40000    1.000
    C179     C        0.56800    0.94800    0.42600    1.000
    C180     C        0.59100    0.93900    0.45300    1.000
    C181     C        0.60200    0.90400    0.45400    1.000
    C182     C        0.60500    0.96600    0.47700    1.000
    N53      N        0.67600    0.85200    0.45300    1.000
    N54      N        0.70100    0.94500    0.46900    1.000
    N55      N        0.60000    0.80900    0.48900    1.000
    N56      N        0.59400    0.87600    0.42400    1.000
    H144     H        0.54096    0.83005    0.47883    1.000
    H145     H        0.51432    0.81056    0.54095    1.000
    H146     H        0.56239    0.78113    0.58817    1.000
    H147     H        0.63267    0.78950    0.57523    1.000
    H148     H        0.65807    0.80899    0.51631    1.000
    H149     H        0.58063    0.87184    0.36994    1.000
    H150     H        0.53550    0.92562    0.37951    1.000
    H151     H        0.55448    0.97731    0.42294    1.000
    H152     H        0.61907    0.89309    0.47932    1.000
    H153     H        0.63679    0.96722    0.48326    1.000
    H154     H        0.58492    0.98738    0.49083    1.000
    C183     C        0.70000    0.13900    0.03200    1.000
    C184     C        0.71800    0.07800    0.02300    1.000
    C185     C        0.56000    0.18400    0.99900    1.000
    C186     C        0.54600    0.19300    0.96500    1.000
    C187     C        0.57200    0.20600    0.94000    1.000
    C188     C        0.61100    0.20400    0.94800    1.000
    C189     C        0.62600    0.19500    0.98100    1.000
    C190     C        0.57900    0.11200    0.10200    1.000
    C191     C        0.56000    0.08000    0.10000    1.000
    C192     C        0.56800    0.05200    0.07400    1.000
    C193     C        0.59100    0.06100    0.04700    1.000
    C194     C        0.60200    0.09600    0.04600    1.000
    C195     C        0.60500    0.03400    0.02300    1.000
    N57      N        0.67600    0.14800    0.04700    1.000
    N58      N        0.70100    0.05500    0.03100    1.000
    N59      N        0.60000    0.19100    0.01100    1.000
    N60      N        0.59400    0.12400    0.07600    1.000
    H155     H        0.54096    0.16995    0.02117    1.000
    H156     H        0.51432    0.18944    0.95905    1.000
    H157     H        0.56239    0.21887    0.91183    1.000
    H158     H        0.63267    0.21050    0.92477    1.000
    H159     H        0.65807    0.19101    0.98369    1.000
    H160     H        0.58063    0.12816    0.13006    1.000
    H161     H        0.53550    0.07438    0.12049    1.000
    H162     H        0.55448    0.02269    0.07706    1.000
    H163     H        0.61907    0.10691    0.02068    1.000
    H164     H        0.63679    0.03278    0.01674    1.000
    H165     H        0.58492    0.01262    0.00917    1.000
    C196     C        0.20000    0.63900    0.53200    1.000
    C197     C        0.21800    0.57800    0.52300    1.000
    C198     C        0.06000    0.68400    0.49900    1.000
    C199     C        0.04600    0.69300    0.46500    1.000
    C200     C        0.07200    0.70600    0.44000    1.000
    C201     C        0.11100    0.70400    0.44800    1.000
    C202     C        0.12600    0.69500    0.48100    1.000
    C203     C        0.07900    0.61200    0.60200    1.000
    C204     C        0.06000    0.58000    0.60000    1.000
    C205     C        0.06800    0.55200    0.57400    1.000
    C206     C        0.09100    0.56100    0.54700    1.000
    C207     C        0.10200    0.59600    0.54600    1.000
    C208     C        0.10500    0.53400    0.52300    1.000
    N61      N        0.17600    0.64800    0.54700    1.000
    N62      N        0.20100    0.55500    0.53100    1.000
    N63      N        0.10000    0.69100    0.51100    1.000
    N64      N        0.09400    0.62400    0.57600    1.000
    H166     H        0.04096    0.66995    0.52117    1.000
    H167     H        0.01432    0.68944    0.45905    1.000
    H168     H        0.06239    0.71887    0.41183    1.000
    H169     H        0.13267    0.71050    0.42477    1.000
    H170     H        0.15807    0.69101    0.48369    1.000
    H171     H        0.08063    0.62816    0.63006    1.000
    H172     H        0.03550    0.57438    0.62049    1.000
    H173     H        0.05448    0.52269    0.57706    1.000
    H174     H        0.11907    0.60691    0.52068    1.000
    H175     H        0.13679    0.53278    0.51674    1.000
    H176     H        0.08492    0.51262    0.50917    1.000
    C209     C        0.46800    0.30000    0.63900    1.000
    C210     C        0.47700    0.28200    0.57800    1.000
    C211     C        0.50100    0.44000    0.68400    1.000
    C212     C        0.53500    0.45400    0.69300    1.000
    C213     C        0.56000    0.42800    0.70600    1.000
    C214     C        0.55200    0.38900    0.70400    1.000
    C215     C        0.51900    0.37400    0.69500    1.000
    C216     C        0.39800    0.42100    0.61200    1.000
    C217     C        0.40000    0.44000    0.58000    1.000
    C218     C        0.42600    0.43200    0.55200    1.000
    C219     C        0.45300    0.40900    0.56100    1.000
    C220     C        0.45400    0.39800    0.59600    1.000
    C221     C        0.47700    0.39500    0.53400    1.000
    N65      N        0.45300    0.32400    0.64800    1.000
    N66      N        0.46900    0.29900    0.55500    1.000
    N67      N        0.48900    0.40000    0.69100    1.000
    N68      N        0.42400    0.40600    0.62400    1.000
    H177     H        0.47883    0.45904    0.66995    1.000
    H178     H        0.54095    0.48568    0.68944    1.000
    H179     H        0.58817    0.43761    0.71887    1.000
    H180     H        0.57523    0.36733    0.71050    1.000
    H181     H        0.51631    0.34193    0.69101    1.000
    H182     H        0.36994    0.41937    0.62816    1.000
    H183     H        0.37951    0.46450    0.57438    1.000
    H184     H        0.42294    0.44552    0.52269    1.000
    H185     H        0.47932    0.38093    0.60691    1.000
    H186     H        0.48326    0.36321    0.53278    1.000
    H187     H        0.49083    0.41508    0.51262    1.000
    C222     C        0.96800    0.80000    0.13900    1.000
    C223     C        0.97700    0.78200    0.07800    1.000
    C224     C        0.00100    0.94000    0.18400    1.000
    C225     C        0.03500    0.95400    0.19300    1.000
    C226     C        0.06000    0.92800    0.20600    1.000
    C227     C        0.05200    0.88900    0.20400    1.000
    C228     C        0.01900    0.87400    0.19500    1.000
    C229     C        0.89800    0.92100    0.11200    1.000
    C230     C        0.90000    0.94000    0.08000    1.000
    C231     C        0.92600    0.93200    0.05200    1.000
    C232     C        0.95300    0.90900    0.06100    1.000
    C233     C        0.95400    0.89800    0.09600    1.000
    C234     C        0.97700    0.89500    0.03400    1.000
    N69      N        0.95300    0.82400    0.14800    1.000
    N70      N        0.96900    0.79900    0.05500    1.000
    N71      N        0.98900    0.90000    0.19100    1.000
    N72      N        0.92400    0.90600    0.12400    1.000
    H188     H        0.97883    0.95904    0.16995    1.000
    H189     H        0.04095    0.98568    0.18944    1.000
    H190     H        0.08817    0.93761    0.21887    1.000
    H191     H        0.07523    0.86733    0.21050    1.000
    H192     H        0.01631    0.84193    0.19101    1.000
    H193     H        0.86994    0.91937    0.12816    1.000
    H194     H        0.87951    0.96450    0.07438    1.000
    H195     H        0.92294    0.94552    0.02269    1.000
    H196     H        0.97932    0.88093    0.10691    1.000
    H197     H        0.98326    0.86321    0.03278    1.000
    H198     H        0.99083    0.91508    0.01262    1.000
    C235     C        0.53200    0.80000    0.86100    1.000
    C236     C        0.52300    0.78200    0.92200    1.000
    C237     C        0.49900    0.94000    0.81600    1.000
    C238     C        0.46500    0.95400    0.80700    1.000
    C239     C        0.44000    0.92800    0.79400    1.000
    C240     C        0.44800    0.88900    0.79600    1.000
    C241     C        0.48100    0.87400    0.80500    1.000
    C242     C        0.60200    0.92100    0.88800    1.000
    C243     C        0.60000    0.94000    0.92000    1.000
    C244     C        0.57400    0.93200    0.94800    1.000
    C245     C        0.54700    0.90900    0.93900    1.000
    C246     C        0.54600    0.89800    0.90400    1.000
    C247     C        0.52300    0.89500    0.96600    1.000
    N73      N        0.54700    0.82400    0.85200    1.000
    N74      N        0.53100    0.79900    0.94500    1.000
    N75      N        0.51100    0.90000    0.80900    1.000
    N76      N        0.57600    0.90600    0.87600    1.000
    H199     H        0.52117    0.95904    0.83005    1.000
    H200     H        0.45905    0.98568    0.81056    1.000
    H201     H        0.41183    0.93761    0.78113    1.000
    H202     H        0.42477    0.86733    0.78950    1.000
    H203     H        0.48369    0.84193    0.80899    1.000
    H204     H        0.63006    0.91937    0.87184    1.000
    H205     H        0.62049    0.96450    0.92562    1.000
    H206     H        0.57706    0.94552    0.97731    1.000
    H207     H        0.52068    0.88093    0.89309    1.000
    H208     H        0.51674    0.86321    0.96722    1.000
    H209     H        0.50917    0.91508    0.98738    1.000
    C248     C        0.03200    0.30000    0.36100    1.000
    C249     C        0.02300    0.28200    0.42200    1.000
    C250     C        0.99900    0.44000    0.31600    1.000
    C251     C        0.96500    0.45400    0.30700    1.000
    C252     C        0.94000    0.42800    0.29400    1.000
    C253     C        0.94800    0.38900    0.29600    1.000
    C254     C        0.98100    0.37400    0.30500    1.000
    C255     C        0.10200    0.42100    0.38800    1.000
    C256     C        0.10000    0.44000    0.42000    1.000
    C257     C        0.07400    0.43200    0.44800    1.000
    C258     C        0.04700    0.40900    0.43900    1.000
    C259     C        0.04600    0.39800    0.40400    1.000
    C260     C        0.02300    0.39500    0.46600    1.000
    N77      N        0.04700    0.32400    0.35200    1.000
    N78      N        0.03100    0.29900    0.44500    1.000
    N79      N        0.01100    0.40000    0.30900    1.000
    N80      N        0.07600    0.40600    0.37600    1.000
    H210     H        0.02117    0.45904    0.33005    1.000
    H211     H        0.95905    0.48568    0.31056    1.000
    H212     H        0.91183    0.43761    0.28113    1.000
    H213     H        0.92477    0.36733    0.28950    1.000
    H214     H        0.98369    0.34193    0.30899    1.000
    H215     H        0.13006    0.41937    0.37184    1.000
    H216     H        0.12049    0.46450    0.42562    1.000
    H217     H        0.07706    0.44552    0.47731    1.000
    H218     H        0.02068    0.38093    0.39309    1.000
    H219     H        0.01674    0.36321    0.46722    1.000
    H220     H        0.00917    0.41508    0.48738    1.000
    C261     C        0.96800    0.20000    0.36100    1.000
    C262     C        0.97700    0.21800    0.42200    1.000
    C263     C        0.00100    0.06000    0.31600    1.000
    C264     C        0.03500    0.04600    0.30700    1.000
    C265     C        0.06000    0.07200    0.29400    1.000
    C266     C        0.05200    0.11100    0.29600    1.000
    C267     C        0.01900    0.12600    0.30500    1.000
    C268     C        0.89800    0.07900    0.38800    1.000
    C269     C        0.90000    0.06000    0.42000    1.000
    C270     C        0.92600    0.06800    0.44800    1.000
    C271     C        0.95300    0.09100    0.43900    1.000
    C272     C        0.95400    0.10200    0.40400    1.000
    C273     C        0.97700    0.10500    0.46600    1.000
    N81      N        0.95300    0.17600    0.35200    1.000
    N82      N        0.96900    0.20100    0.44500    1.000
    N83      N        0.98900    0.10000    0.30900    1.000
    N84      N        0.92400    0.09400    0.37600    1.000
    H221     H        0.97883    0.04096    0.33005    1.000
    H222     H        0.04095    0.01432    0.31056    1.000
    H223     H        0.08817    0.06239    0.28113    1.000
    H224     H        0.07523    0.13267    0.28950    1.000
    H225     H        0.01631    0.15807    0.30899    1.000
    H226     H        0.86994    0.08063    0.37184    1.000
    H227     H        0.87951    0.03550    0.42562    1.000
    H228     H        0.92294    0.05448    0.47731    1.000
    H229     H        0.97932    0.11907    0.39309    1.000
    H230     H        0.98326    0.13679    0.46722    1.000
    H231     H        0.99083    0.08492    0.48738    1.000
    C274     C        0.46800    0.70000    0.86100    1.000
    C275     C        0.47700    0.71800    0.92200    1.000
    C276     C        0.50100    0.56000    0.81600    1.000
    C277     C        0.53500    0.54600    0.80700    1.000
    C278     C        0.56000    0.57200    0.79400    1.000
    C279     C        0.55200    0.61100    0.79600    1.000
    C280     C        0.51900    0.62600    0.80500    1.000
    C281     C        0.39800    0.57900    0.88800    1.000
    C282     C        0.40000    0.56000    0.92000    1.000
    C283     C        0.42600    0.56800    0.94800    1.000
    C284     C        0.45300    0.59100    0.93900    1.000
    C285     C        0.45400    0.60200    0.90400    1.000
    C286     C        0.47700    0.60500    0.96600    1.000
    N85      N        0.45300    0.67600    0.85200    1.000
    N86      N        0.46900    0.70100    0.94500    1.000
    N87      N        0.48900    0.60000    0.80900    1.000
    N88      N        0.42400    0.59400    0.87600    1.000
    H232     H        0.47883    0.54096    0.83005    1.000
    H233     H        0.54095    0.51432    0.81056    1.000
    H234     H        0.58817    0.56239    0.78113    1.000
    H235     H        0.57523    0.63267    0.78950    1.000
    H236     H        0.51631    0.65807    0.80899    1.000
    H237     H        0.36994    0.58063    0.87184    1.000
    H238     H        0.37951    0.53550    0.92562    1.000
    H239     H        0.42294    0.55448    0.97731    1.000
    H240     H        0.47932    0.61907    0.89309    1.000
    H241     H        0.48326    0.63679    0.96722    1.000
    H242     H        0.49083    0.58492    0.98738    1.000
    C287     C        0.03200    0.70000    0.13900    1.000
    C288     C        0.02300    0.71800    0.07800    1.000
    C289     C        0.99900    0.56000    0.18400    1.000
    C290     C        0.96500    0.54600    0.19300    1.000
    C291     C        0.94000    0.57200    0.20600    1.000
    C292     C        0.94800    0.61100    0.20400    1.000
    C293     C        0.98100    0.62600    0.19500    1.000
    C294     C        0.10200    0.57900    0.11200    1.000
    C295     C        0.10000    0.56000    0.08000    1.000
    C296     C        0.07400    0.56800    0.05200    1.000
    C297     C        0.04700    0.59100    0.06100    1.000
    C298     C        0.04600    0.60200    0.09600    1.000
    C299     C        0.02300    0.60500    0.03400    1.000
    N89      N        0.04700    0.67600    0.14800    1.000
    N90      N        0.03100    0.70100    0.05500    1.000
    N91      N        0.01100    0.60000    0.19100    1.000
    N92      N        0.07600    0.59400    0.12400    1.000
    H243     H        0.02117    0.54096    0.16995    1.000
    H244     H        0.95905    0.51432    0.18944    1.000
    H245     H        0.91183    0.56239    0.21887    1.000
    H246     H        0.92477    0.63267    0.21050    1.000
    H247     H        0.98369    0.65807    0.19101    1.000
    H248     H        0.13006    0.58063    0.12816    1.000
    H249     H        0.12049    0.53550    0.07438    1.000
    H250     H        0.07706    0.55448    0.02269    1.000
    H251     H        0.02068    0.61907    0.10691    1.000
    H252     H        0.01674    0.63679    0.03278    1.000
    H253     H        0.00917    0.58492    0.01262    1.000
    C300     C        0.53200    0.20000    0.63900    1.000
    C301     C        0.52300    0.21800    0.57800    1.000
    C302     C        0.49900    0.06000    0.68400    1.000
    C303     C        0.46500    0.04600    0.69300    1.000
    C304     C        0.44000    0.07200    0.70600    1.000
    C305     C        0.44800    0.11100    0.70400    1.000
    C306     C        0.48100    0.12600    0.69500    1.000
    C307     C        0.60200    0.07900    0.61200    1.000
    C308     C        0.60000    0.06000    0.58000    1.000
    C309     C        0.57400    0.06800    0.55200    1.000
    C310     C        0.54700    0.09100    0.56100    1.000
    C311     C        0.54600    0.10200    0.59600    1.000
    C312     C        0.52300    0.10500    0.53400    1.000
    N93      N        0.54700    0.17600    0.64800    1.000
    N94      N        0.53100    0.20100    0.55500    1.000
    N95      N        0.51100    0.10000    0.69100    1.000
    N96      N        0.57600    0.09400    0.62400    1.000
    H254     H        0.52117    0.04096    0.66995    1.000
    H255     H        0.45905    0.01432    0.68944    1.000
    H256     H        0.41183    0.06239    0.71887    1.000
    H257     H        0.42477    0.13267    0.71050    1.000
    H258     H        0.48369    0.15807    0.69101    1.000
    H259     H        0.63006    0.08063    0.62816    1.000
    H260     H        0.62049    0.03550    0.57438    1.000
    H261     H        0.57706    0.05448    0.52269    1.000
    H262     H        0.52068    0.11907    0.60691    1.000
    H263     H        0.51674    0.13679    0.53278    1.000
    H264     H        0.50917    0.08492    0.51262    1.000
    C313     C        0.21800    0.88900    0.95000    1.000
    C314     C        0.22700    0.82800    0.96800    1.000
    C315     C        0.25100    0.93400    0.81000    1.000
    C316     C        0.28500    0.94300    0.79600    1.000
    C317     C        0.31000    0.95600    0.82200    1.000
    C318     C        0.30200    0.95400    0.86100    1.000
    C319     C        0.26900    0.94500    0.87600    1.000
    C320     C        0.14800    0.86200    0.82900    1.000
    C321     C        0.15000    0.83000    0.81000    1.000
    C322     C        0.17600    0.80200    0.81800    1.000
    C323     C        0.20300    0.81100    0.84100    1.000
    C324     C        0.20400    0.84600    0.85200    1.000
    C325     C        0.22700    0.78400    0.85500    1.000
    N97      N        0.20300    0.89800    0.92600    1.000
    N98      N        0.21900    0.80500    0.95100    1.000
    N99      N        0.23900    0.94100    0.85000    1.000
    N100     N        0.17400    0.87400    0.84400    1.000
    H265     H        0.22883    0.91995    0.79096    1.000
    H266     H        0.29095    0.93944    0.76432    1.000
    H267     H        0.33817    0.96887    0.81239    1.000
    H268     H        0.32523    0.96050    0.88267    1.000
    H269     H        0.26631    0.94101    0.90807    1.000
    H270     H        0.11994    0.87816    0.83063    1.000
    H271     H        0.12951    0.82438    0.78550    1.000
    H272     H        0.17294    0.77269    0.80448    1.000
    H273     H        0.22932    0.85691    0.86907    1.000
    H274     H        0.23326    0.78278    0.88679    1.000
    H275     H        0.24083    0.76262    0.83492    1.000
    C326     C        0.71800    0.38900    0.45000    1.000
    C327     C        0.72700    0.32800    0.46800    1.000
    C328     C        0.75100    0.43400    0.31000    1.000
    C329     C        0.78500    0.44300    0.29600    1.000
    C330     C        0.81000    0.45600    0.32200    1.000
    C331     C        0.80200    0.45400    0.36100    1.000
    C332     C        0.76900    0.44500    0.37600    1.000
    C333     C        0.64800    0.36200    0.32900    1.000
    C334     C        0.65000    0.33000    0.31000    1.000
    C335     C        0.67600    0.30200    0.31800    1.000
    C336     C        0.70300    0.31100    0.34100    1.000
    C337     C        0.70400    0.34600    0.35200    1.000
    C338     C        0.72700    0.28400    0.35500    1.000
    N101     N        0.70300    0.39800    0.42600    1.000
    N102     N        0.71900    0.30500    0.45100    1.000
    N103     N        0.73900    0.44100    0.35000    1.000
    N104     N        0.67400    0.37400    0.34400    1.000
    H276     H        0.72883    0.41995    0.29096    1.000
    H277     H        0.79095    0.43944    0.26432    1.000
    H278     H        0.83817    0.46887    0.31239    1.000
    H279     H        0.82523    0.46050    0.38267    1.000
    H280     H        0.76631    0.44101    0.40807    1.000
    H281     H        0.61994    0.37816    0.33063    1.000
    H282     H        0.62951    0.32438    0.28550    1.000
    H283     H        0.67294    0.27269    0.30448    1.000
    H284     H        0.72932    0.35691    0.36907    1.000
    H285     H        0.73326    0.28278    0.38679    1.000
    H286     H        0.74083    0.26262    0.33492    1.000
    C339     C        0.28200    0.11100    0.45000    1.000
    C340     C        0.27300    0.17200    0.46800    1.000
    C341     C        0.24900    0.06600    0.31000    1.000
    C342     C        0.21500    0.05700    0.29600    1.000
    C343     C        0.19000    0.04400    0.32200    1.000
    C344     C        0.19800    0.04600    0.36100    1.000
    C345     C        0.23100    0.05500    0.37600    1.000
    C346     C        0.35200    0.13800    0.32900    1.000
    C347     C        0.35000    0.17000    0.31000    1.000
    C348     C        0.32400    0.19800    0.31800    1.000
    C349     C        0.29700    0.18900    0.34100    1.000
    C350     C        0.29600    0.15400    0.35200    1.000
    C351     C        0.27300    0.21600    0.35500    1.000
    N105     N        0.29700    0.10200    0.42600    1.000
    N106     N        0.28100    0.19500    0.45100    1.000
    N107     N        0.26100    0.05900    0.35000    1.000
    N108     N        0.32600    0.12600    0.34400    1.000
    H287     H        0.27117    0.08005    0.29096    1.000
    H288     H        0.20905    0.06056    0.26432    1.000
    H289     H        0.16183    0.03113    0.31239    1.000
    H290     H        0.17477    0.03950    0.38267    1.000
    H291     H        0.23369    0.05899    0.40807    1.000
    H292     H        0.38006    0.12184    0.33063    1.000
    H293     H        0.37049    0.17562    0.28550    1.000
    H294     H        0.32706    0.22731    0.30448    1.000
    H295     H        0.27068    0.14309    0.36907    1.000
    H296     H        0.26674    0.21722    0.38679    1.000
    H297     H        0.25917    0.23738    0.33492    1.000
    C352     C        0.78200    0.61100    0.95000    1.000
    C353     C        0.77300    0.67200    0.96800    1.000
    C354     C        0.74900    0.56600    0.81000    1.000
    C355     C        0.71500    0.55700    0.79600    1.000
    C356     C        0.69000    0.54400    0.82200    1.000
    C357     C        0.69800    0.54600    0.86100    1.000
    C358     C        0.73100    0.55500    0.87600    1.000
    C359     C        0.85200    0.63800    0.82900    1.000
    C360     C        0.85000    0.67000    0.81000    1.000
    C361     C        0.82400    0.69800    0.81800    1.000
    C362     C        0.79700    0.68900    0.84100    1.000
    C363     C        0.79600    0.65400    0.85200    1.000
    C364     C        0.77300    0.71600    0.85500    1.000
    N109     N        0.79700    0.60200    0.92600    1.000
    N110     N        0.78100    0.69500    0.95100    1.000
    N111     N        0.76100    0.55900    0.85000    1.000
    N112     N        0.82600    0.62600    0.84400    1.000
    H298     H        0.77117    0.58005    0.79096    1.000
    H299     H        0.70905    0.56056    0.76432    1.000
    H300     H        0.66183    0.53113    0.81239    1.000
    H301     H        0.67477    0.53950    0.88267    1.000
    H302     H        0.73369    0.55899    0.90807    1.000
    H303     H        0.88006    0.62184    0.83063    1.000
    H304     H        0.87049    0.67562    0.78550    1.000
    H305     H        0.82706    0.72731    0.80448    1.000
    H306     H        0.77068    0.64309    0.86907    1.000
    H307     H        0.76674    0.71722    0.88679    1.000
    H308     H        0.75917    0.73738    0.83492    1.000
    C365     C        0.71800    0.61100    0.05000    1.000
    C366     C        0.72700    0.67200    0.03200    1.000
    C367     C        0.75100    0.56600    0.19000    1.000
    C368     C        0.78500    0.55700    0.20400    1.000
    C369     C        0.81000    0.54400    0.17800    1.000
    C370     C        0.80200    0.54600    0.13900    1.000
    C371     C        0.76900    0.55500    0.12400    1.000
    C372     C        0.64800    0.63800    0.17100    1.000
    C373     C        0.65000    0.67000    0.19000    1.000
    C374     C        0.67600    0.69800    0.18200    1.000
    C375     C        0.70300    0.68900    0.15900    1.000
    C376     C        0.70400    0.65400    0.14800    1.000
    C377     C        0.72700    0.71600    0.14500    1.000
    N113     N        0.70300    0.60200    0.07400    1.000
    N114     N        0.71900    0.69500    0.04900    1.000
    N115     N        0.73900    0.55900    0.15000    1.000
    N116     N        0.67400    0.62600    0.15600    1.000
    H309     H        0.72883    0.58005    0.20904    1.000
    H310     H        0.79095    0.56056    0.23568    1.000
    H311     H        0.83817    0.53113    0.18761    1.000
    H312     H        0.82523    0.53950    0.11733    1.000
    H313     H        0.76631    0.55899    0.09193    1.000
    H314     H        0.61994    0.62184    0.16937    1.000
    H315     H        0.62951    0.67562    0.21450    1.000
    H316     H        0.67294    0.72731    0.19552    1.000
    H317     H        0.72932    0.64309    0.13093    1.000
    H318     H        0.73326    0.71722    0.11321    1.000
    H319     H        0.74083    0.73738    0.16508    1.000
    C378     C        0.21800    0.11100    0.55000    1.000
    C379     C        0.22700    0.17200    0.53200    1.000
    C380     C        0.25100    0.06600    0.69000    1.000
    C381     C        0.28500    0.05700    0.70400    1.000
    C382     C        0.31000    0.04400    0.67800    1.000
    C383     C        0.30200    0.04600    0.63900    1.000
    C384     C        0.26900    0.05500    0.62400    1.000
    C385     C        0.14800    0.13800    0.67100    1.000
    C386     C        0.15000    0.17000    0.69000    1.000
    C387     C        0.17600    0.19800    0.68200    1.000
    C388     C        0.20300    0.18900    0.65900    1.000
    C389     C        0.20400    0.15400    0.64800    1.000
    C390     C        0.22700    0.21600    0.64500    1.000
    N117     N        0.20300    0.10200    0.57400    1.000
    N118     N        0.21900    0.19500    0.54900    1.000
    N119     N        0.23900    0.05900    0.65000    1.000
    N120     N        0.17400    0.12600    0.65600    1.000
    H320     H        0.22883    0.08005    0.70904    1.000
    H321     H        0.29095    0.06056    0.73568    1.000
    H322     H        0.33817    0.03113    0.68761    1.000
    H323     H        0.32523    0.03950    0.61733    1.000
    H324     H        0.26631    0.05899    0.59193    1.000
    H325     H        0.11994    0.12184    0.66937    1.000
    H326     H        0.12951    0.17562    0.71450    1.000
    H327     H        0.17294    0.22731    0.69552    1.000
    H328     H        0.22932    0.14309    0.63093    1.000
    H329     H        0.23326    0.21722    0.61321    1.000
    H330     H        0.24083    0.23738    0.66508    1.000
    C391     C        0.78200    0.38900    0.55000    1.000
    C392     C        0.77300    0.32800    0.53200    1.000
    C393     C        0.74900    0.43400    0.69000    1.000
    C394     C        0.71500    0.44300    0.70400    1.000
    C395     C        0.69000    0.45600    0.67800    1.000
    C396     C        0.69800    0.45400    0.63900    1.000
    C397     C        0.73100    0.44500    0.62400    1.000
    C398     C        0.85200    0.36200    0.67100    1.000
    C399     C        0.85000    0.33000    0.69000    1.000
    C400     C        0.82400    0.30200    0.68200    1.000
    C401     C        0.79700    0.31100    0.65900    1.000
    C402     C        0.79600    0.34600    0.64800    1.000
    C403     C        0.77300    0.28400    0.64500    1.000
    N121     N        0.79700    0.39800    0.57400    1.000
    N122     N        0.78100    0.30500    0.54900    1.000
    N123     N        0.76100    0.44100    0.65000    1.000
    N124     N        0.82600    0.37400    0.65600    1.000
    H331     H        0.77117    0.41995    0.70904    1.000
    H332     H        0.70905    0.43944    0.73568    1.000
    H333     H        0.66183    0.46887    0.68761    1.000
    H334     H        0.67477    0.46050    0.61733    1.000
    H335     H        0.73369    0.44101    0.59193    1.000
    H336     H        0.88006    0.37816    0.66937    1.000
    H337     H        0.87049    0.32438    0.71450    1.000
    H338     H        0.82706    0.27269    0.69552    1.000
    H339     H        0.77068    0.35691    0.63093    1.000
    H340     H        0.76674    0.28278    0.61321    1.000
    H341     H        0.75917    0.26262    0.66508    1.000
    C404     C        0.28200    0.88900    0.05000    1.000
    C405     C        0.27300    0.82800    0.03200    1.000
    C406     C        0.24900    0.93400    0.19000    1.000
    C407     C        0.21500    0.94300    0.20400    1.000
    C408     C        0.19000    0.95600    0.17800    1.000
    C409     C        0.19800    0.95400    0.13900    1.000
    C410     C        0.23100    0.94500    0.12400    1.000
    C411     C        0.35200    0.86200    0.17100    1.000
    C412     C        0.35000    0.83000    0.19000    1.000
    C413     C        0.32400    0.80200    0.18200    1.000
    C414     C        0.29700    0.81100    0.15900    1.000
    C415     C        0.29600    0.84600    0.14800    1.000
    C416     C        0.27300    0.78400    0.14500    1.000
    N125     N        0.29700    0.89800    0.07400    1.000
    N126     N        0.28100    0.80500    0.04900    1.000
    N127     N        0.26100    0.94100    0.15000    1.000
    N128     N        0.32600    0.87400    0.15600    1.000
    H342     H        0.27117    0.91995    0.20904    1.000
    H343     H        0.20905    0.93944    0.23568    1.000
    H344     H        0.16183    0.96887    0.18761    1.000
    H345     H        0.17477    0.96050    0.11733    1.000
    H346     H        0.23369    0.94101    0.09193    1.000
    H347     H        0.38006    0.87816    0.16937    1.000
    H348     H        0.37049    0.82438    0.21450    1.000
    H349     H        0.32706    0.77269    0.19552    1.000
    H350     H        0.27068    0.85691    0.13093    1.000
    H351     H        0.26674    0.78278    0.11321    1.000
    H352     H        0.25917    0.76262    0.16508    1.000
    C417     C        0.38900    0.55000    0.78200    1.000
    C418     C        0.32800    0.53200    0.77300    1.000
    C419     C        0.43400    0.69000    0.74900    1.000
    C420     C        0.44300    0.70400    0.71500    1.000
    C421     C        0.45600    0.67800    0.69000    1.000
    C422     C        0.45400    0.63900    0.69800    1.000
    C423     C        0.44500    0.62400    0.73100    1.000
    C424     C        0.36200    0.67100    0.85200    1.000
    C425     C        0.33000    0.69000    0.85000    1.000
    C426     C        0.30200    0.68200    0.82400    1.000
    C427     C        0.31100    0.65900    0.79700    1.000
    C428     C        0.34600    0.64800    0.79600    1.000
    C429     C        0.28400    0.64500    0.77300    1.000
    N129     N        0.39800    0.57400    0.79700    1.000
    N130     N        0.30500    0.54900    0.78100    1.000
    N131     N        0.44100    0.65000    0.76100    1.000
    N132     N        0.37400    0.65600    0.82600    1.000
    H353     H        0.41995    0.70904    0.77117    1.000
    H354     H        0.43944    0.73568    0.70905    1.000
    H355     H        0.46887    0.68761    0.66183    1.000
    H356     H        0.46050    0.61733    0.67477    1.000
    H357     H        0.44101    0.59193    0.73369    1.000
    H358     H        0.37816    0.66937    0.88006    1.000
    H359     H        0.32438    0.71450    0.87049    1.000
    H360     H        0.27269    0.69552    0.82706    1.000
    H361     H        0.35691    0.63093    0.77068    1.000
    H362     H        0.28278    0.61321    0.76674    1.000
    H363     H        0.26262    0.66508    0.75917    1.000
    C430     C        0.88900    0.05000    0.28200    1.000
    C431     C        0.82800    0.03200    0.27300    1.000
    C432     C        0.93400    0.19000    0.24900    1.000
    C433     C        0.94300    0.20400    0.21500    1.000
    C434     C        0.95600    0.17800    0.19000    1.000
    C435     C        0.95400    0.13900    0.19800    1.000
    C436     C        0.94500    0.12400    0.23100    1.000
    C437     C        0.86200    0.17100    0.35200    1.000
    C438     C        0.83000    0.19000    0.35000    1.000
    C439     C        0.80200    0.18200    0.32400    1.000
    C440     C        0.81100    0.15900    0.29700    1.000
    C441     C        0.84600    0.14800    0.29600    1.000
    C442     C        0.78400    0.14500    0.27300    1.000
    N133     N        0.89800    0.07400    0.29700    1.000
    N134     N        0.80500    0.04900    0.28100    1.000
    N135     N        0.94100    0.15000    0.26100    1.000
    N136     N        0.87400    0.15600    0.32600    1.000
    H364     H        0.91995    0.20904    0.27117    1.000
    H365     H        0.93944    0.23568    0.20905    1.000
    H366     H        0.96887    0.18761    0.16183    1.000
    H367     H        0.96050    0.11733    0.17477    1.000
    H368     H        0.94101    0.09193    0.23369    1.000
    H369     H        0.87816    0.16937    0.38006    1.000
    H370     H        0.82438    0.21450    0.37049    1.000
    H371     H        0.77269    0.19552    0.32706    1.000
    H372     H        0.85691    0.13093    0.27068    1.000
    H373     H        0.78278    0.11321    0.26674    1.000
    H374     H        0.76262    0.16508    0.25917    1.000
    C443     C        0.61100    0.05000    0.71800    1.000
    C444     C        0.67200    0.03200    0.72700    1.000
    C445     C        0.56600    0.19000    0.75100    1.000
    C446     C        0.55700    0.20400    0.78500    1.000
    C447     C        0.54400    0.17800    0.81000    1.000
    C448     C        0.54600    0.13900    0.80200    1.000
    C449     C        0.55500    0.12400    0.76900    1.000
    C450     C        0.63800    0.17100    0.64800    1.000
    C451     C        0.67000    0.19000    0.65000    1.000
    C452     C        0.69800    0.18200    0.67600    1.000
    C453     C        0.68900    0.15900    0.70300    1.000
    C454     C        0.65400    0.14800    0.70400    1.000
    C455     C        0.71600    0.14500    0.72700    1.000
    N137     N        0.60200    0.07400    0.70300    1.000
    N138     N        0.69500    0.04900    0.71900    1.000
    N139     N        0.55900    0.15000    0.73900    1.000
    N140     N        0.62600    0.15600    0.67400    1.000
    H375     H        0.58005    0.20904    0.72883    1.000
    H376     H        0.56056    0.23568    0.79095    1.000
    H377     H        0.53113    0.18761    0.83817    1.000
    H378     H        0.53950    0.11733    0.82523    1.000
    H379     H        0.55899    0.09193    0.76631    1.000
    H380     H        0.62184    0.16937    0.61994    1.000
    H381     H        0.67562    0.21450    0.62951    1.000
    H382     H        0.72731    0.19552    0.67294    1.000
    H383     H        0.64309    0.13093    0.72932    1.000
    H384     H        0.71722    0.11321    0.73326    1.000
    H385     H        0.73738    0.16508    0.74083    1.000
    C456     C        0.11100    0.55000    0.21800    1.000
    C457     C        0.17200    0.53200    0.22700    1.000
    C458     C        0.06600    0.69000    0.25100    1.000
    C459     C        0.05700    0.70400    0.28500    1.000
    C460     C        0.04400    0.67800    0.31000    1.000
    C461     C        0.04600    0.63900    0.30200    1.000
    C462     C        0.05500    0.62400    0.26900    1.000
    C463     C        0.13800    0.67100    0.14800    1.000
    C464     C        0.17000    0.69000    0.15000    1.000
    C465     C        0.19800    0.68200    0.17600    1.000
    C466     C        0.18900    0.65900    0.20300    1.000
    C467     C        0.15400    0.64800    0.20400    1.000
    C468     C        0.21600    0.64500    0.22700    1.000
    N141     N        0.10200    0.57400    0.20300    1.000
    N142     N        0.19500    0.54900    0.21900    1.000
    N143     N        0.05900    0.65000    0.23900    1.000
    N144     N        0.12600    0.65600    0.17400    1.000
    H386     H        0.08005    0.70904    0.22883    1.000
    H387     H        0.06056    0.73568    0.29095    1.000
    H388     H        0.03113    0.68761    0.33817    1.000
    H389     H        0.03950    0.61733    0.32523    1.000
    H390     H        0.05899    0.59193    0.26631    1.000
    H391     H        0.12184    0.66937    0.11994    1.000
    H392     H        0.17562    0.71450    0.12951    1.000
    H393     H        0.22731    0.69552    0.17294    1.000
    H394     H        0.14309    0.63093    0.22932    1.000
    H395     H        0.21722    0.61321    0.23326    1.000
    H396     H        0.23738    0.66508    0.24083    1.000
    C469     C        0.11100    0.45000    0.28200    1.000
    C470     C        0.17200    0.46800    0.27300    1.000
    C471     C        0.06600    0.31000    0.24900    1.000
    C472     C        0.05700    0.29600    0.21500    1.000
    C473     C        0.04400    0.32200    0.19000    1.000
    C474     C        0.04600    0.36100    0.19800    1.000
    C475     C        0.05500    0.37600    0.23100    1.000
    C476     C        0.13800    0.32900    0.35200    1.000
    C477     C        0.17000    0.31000    0.35000    1.000
    C478     C        0.19800    0.31800    0.32400    1.000
    C479     C        0.18900    0.34100    0.29700    1.000
    C480     C        0.15400    0.35200    0.29600    1.000
    C481     C        0.21600    0.35500    0.27300    1.000
    N145     N        0.10200    0.42600    0.29700    1.000
    N146     N        0.19500    0.45100    0.28100    1.000
    N147     N        0.05900    0.35000    0.26100    1.000
    N148     N        0.12600    0.34400    0.32600    1.000
    H397     H        0.08005    0.29096    0.27117    1.000
    H398     H        0.06056    0.26432    0.20905    1.000
    H399     H        0.03113    0.31239    0.16183    1.000
    H400     H        0.03950    0.38267    0.17477    1.000
    H401     H        0.05899    0.40807    0.23369    1.000
    H402     H        0.12184    0.33063    0.38006    1.000
    H403     H        0.17562    0.28550    0.37049    1.000
    H404     H        0.22731    0.30448    0.32706    1.000
    H405     H        0.14309    0.36907    0.27068    1.000
    H406     H        0.21722    0.38679    0.26674    1.000
    H407     H        0.23738    0.33492    0.25917    1.000
    C482     C        0.61100    0.95000    0.78200    1.000
    C483     C        0.67200    0.96800    0.77300    1.000
    C484     C        0.56600    0.81000    0.74900    1.000
    C485     C        0.55700    0.79600    0.71500    1.000
    C486     C        0.54400    0.82200    0.69000    1.000
    C487     C        0.54600    0.86100    0.69800    1.000
    C488     C        0.55500    0.87600    0.73100    1.000
    C489     C        0.63800    0.82900    0.85200    1.000
    C490     C        0.67000    0.81000    0.85000    1.000
    C491     C        0.69800    0.81800    0.82400    1.000
    C492     C        0.68900    0.84100    0.79700    1.000
    C493     C        0.65400    0.85200    0.79600    1.000
    C494     C        0.71600    0.85500    0.77300    1.000
    N149     N        0.60200    0.92600    0.79700    1.000
    N150     N        0.69500    0.95100    0.78100    1.000
    N151     N        0.55900    0.85000    0.76100    1.000
    N152     N        0.62600    0.84400    0.82600    1.000
    H408     H        0.58005    0.79096    0.77117    1.000
    H409     H        0.56056    0.76432    0.70905    1.000
    H410     H        0.53113    0.81239    0.66183    1.000
    H411     H        0.53950    0.88267    0.67477    1.000
    H412     H        0.55899    0.90807    0.73369    1.000
    H413     H        0.62184    0.83063    0.88006    1.000
    H414     H        0.67562    0.78550    0.87049    1.000
    H415     H        0.72731    0.80448    0.82706    1.000
    H416     H        0.64309    0.86907    0.77068    1.000
    H417     H        0.71722    0.88679    0.76674    1.000
    H418     H        0.73738    0.83492    0.75917    1.000
    C495     C        0.88900    0.95000    0.21800    1.000
    C496     C        0.82800    0.96800    0.22700    1.000
    C497     C        0.93400    0.81000    0.25100    1.000
    C498     C        0.94300    0.79600    0.28500    1.000
    C499     C        0.95600    0.82200    0.31000    1.000
    C500     C        0.95400    0.86100    0.30200    1.000
    C501     C        0.94500    0.87600    0.26900    1.000
    C502     C        0.86200    0.82900    0.14800    1.000
    C503     C        0.83000    0.81000    0.15000    1.000
    C504     C        0.80200    0.81800    0.17600    1.000
    C505     C        0.81100    0.84100    0.20300    1.000
    C506     C        0.84600    0.85200    0.20400    1.000
    C507     C        0.78400    0.85500    0.22700    1.000
    N153     N        0.89800    0.92600    0.20300    1.000
    N154     N        0.80500    0.95100    0.21900    1.000
    N155     N        0.94100    0.85000    0.23900    1.000
    N156     N        0.87400    0.84400    0.17400    1.000
    H419     H        0.91995    0.79096    0.22883    1.000
    H420     H        0.93944    0.76432    0.29095    1.000
    H421     H        0.96887    0.81239    0.33817    1.000
    H422     H        0.96050    0.88267    0.32523    1.000
    H423     H        0.94101    0.90807    0.26631    1.000
    H424     H        0.87816    0.83063    0.11994    1.000
    H425     H        0.82438    0.78550    0.12951    1.000
    H426     H        0.77269    0.80448    0.17294    1.000
    H427     H        0.85691    0.86907    0.22932    1.000
    H428     H        0.78278    0.88679    0.23326    1.000
    H429     H        0.76262    0.83492    0.24083    1.000
    C508     C        0.38900    0.45000    0.71800    1.000
    C509     C        0.32800    0.46800    0.72700    1.000
    C510     C        0.43400    0.31000    0.75100    1.000
    C511     C        0.44300    0.29600    0.78500    1.000
    C512     C        0.45600    0.32200    0.81000    1.000
    C513     C        0.45400    0.36100    0.80200    1.000
    C514     C        0.44500    0.37600    0.76900    1.000
    C515     C        0.36200    0.32900    0.64800    1.000
    C516     C        0.33000    0.31000    0.65000    1.000
    C517     C        0.30200    0.31800    0.67600    1.000
    C518     C        0.31100    0.34100    0.70300    1.000
    C519     C        0.34600    0.35200    0.70400    1.000
    C520     C        0.28400    0.35500    0.72700    1.000
    N157     N        0.39800    0.42600    0.70300    1.000
    N158     N        0.30500    0.45100    0.71900    1.000
    N159     N        0.44100    0.35000    0.73900    1.000
    N160     N        0.37400    0.34400    0.67400    1.000
    H430     H        0.41995    0.29096    0.72883    1.000
    H431     H        0.43944    0.26432    0.79095    1.000
    H432     H        0.46887    0.31239    0.83817    1.000
    H433     H        0.46050    0.38267    0.82523    1.000
    H434     H        0.44101    0.40807    0.76631    1.000
    H435     H        0.37816    0.33063    0.61994    1.000
    H436     H        0.32438    0.28550    0.62951    1.000
    H437     H        0.27269    0.30448    0.67294    1.000
    H438     H        0.35691    0.36907    0.72932    1.000
    H439     H        0.28278    0.38679    0.73326    1.000
    H440     H        0.26262    0.33492    0.74083    1.000
    C521     C        0.05000    0.71800    0.61100    1.000
    C522     C        0.03200    0.72700    0.67200    1.000
    C523     C        0.19000    0.75100    0.56600    1.000
    C524     C        0.20400    0.78500    0.55700    1.000
    C525     C        0.17800    0.81000    0.54400    1.000
    C526     C        0.13900    0.80200    0.54600    1.000
    C527     C        0.12400    0.76900    0.55500    1.000
    C528     C        0.17100    0.64800    0.63800    1.000
    C529     C        0.19000    0.65000    0.67000    1.000
    C530     C        0.18200    0.67600    0.69800    1.000
    C531     C        0.15900    0.70300    0.68900    1.000
    C532     C        0.14800    0.70400    0.65400    1.000
    C533     C        0.14500    0.72700    0.71600    1.000
    N161     N        0.07400    0.70300    0.60200    1.000
    N162     N        0.04900    0.71900    0.69500    1.000
    N163     N        0.15000    0.73900    0.55900    1.000
    N164     N        0.15600    0.67400    0.62600    1.000
    H441     H        0.20904    0.72883    0.58005    1.000
    H442     H        0.23568    0.79095    0.56056    1.000
    H443     H        0.18761    0.83817    0.53113    1.000
    H444     H        0.11733    0.82523    0.53950    1.000
    H445     H        0.09193    0.76631    0.55899    1.000
    H446     H        0.16937    0.61994    0.62184    1.000
    H447     H        0.21450    0.62951    0.67562    1.000
    H448     H        0.19552    0.67294    0.72731    1.000
    H449     H        0.13093    0.72932    0.64309    1.000
    H450     H        0.11321    0.73326    0.71722    1.000
    H451     H        0.16508    0.74083    0.73738    1.000
    C534     C        0.55000    0.21800    0.11100    1.000
    C535     C        0.53200    0.22700    0.17200    1.000
    C536     C        0.69000    0.25100    0.06600    1.000
    C537     C        0.70400    0.28500    0.05700    1.000
    C538     C        0.67800    0.31000    0.04400    1.000
    C539     C        0.63900    0.30200    0.04600    1.000
    C540     C        0.62400    0.26900    0.05500    1.000
    C541     C        0.67100    0.14800    0.13800    1.000
    C542     C        0.69000    0.15000    0.17000    1.000
    C543     C        0.68200    0.17600    0.19800    1.000
    C544     C        0.65900    0.20300    0.18900    1.000
    C545     C        0.64800    0.20400    0.15400    1.000
    C546     C        0.64500    0.22700    0.21600    1.000
    N165     N        0.57400    0.20300    0.10200    1.000
    N166     N        0.54900    0.21900    0.19500    1.000
    N167     N        0.65000    0.23900    0.05900    1.000
    N168     N        0.65600    0.17400    0.12600    1.000
    H452     H        0.70904    0.22883    0.08005    1.000
    H453     H        0.73568    0.29095    0.06056    1.000
    H454     H        0.68761    0.33817    0.03113    1.000
    H455     H        0.61733    0.32523    0.03950    1.000
    H456     H        0.59193    0.26631    0.05899    1.000
    H457     H        0.66937    0.11994    0.12184    1.000
    H458     H        0.71450    0.12951    0.17562    1.000
    H459     H        0.69552    0.17294    0.22731    1.000
    H460     H        0.63093    0.22932    0.14309    1.000
    H461     H        0.61321    0.23326    0.21722    1.000
    H462     H        0.66508    0.24083    0.23738    1.000
    C547     C        0.55000    0.78200    0.38900    1.000
    C548     C        0.53200    0.77300    0.32800    1.000
    C549     C        0.69000    0.74900    0.43400    1.000
    C550     C        0.70400    0.71500    0.44300    1.000
    C551     C        0.67800    0.69000    0.45600    1.000
    C552     C        0.63900    0.69800    0.45400    1.000
    C553     C        0.62400    0.73100    0.44500    1.000
    C554     C        0.67100    0.85200    0.36200    1.000
    C555     C        0.69000    0.85000    0.33000    1.000
    C556     C        0.68200    0.82400    0.30200    1.000
    C557     C        0.65900    0.79700    0.31100    1.000
    C558     C        0.64800    0.79600    0.34600    1.000
    C559     C        0.64500    0.77300    0.28400    1.000
    N169     N        0.57400    0.79700    0.39800    1.000
    N170     N        0.54900    0.78100    0.30500    1.000
    N171     N        0.65000    0.76100    0.44100    1.000
    N172     N        0.65600    0.82600    0.37400    1.000
    H463     H        0.70904    0.77117    0.41995    1.000
    H464     H        0.73568    0.70905    0.43944    1.000
    H465     H        0.68761    0.66183    0.46887    1.000
    H466     H        0.61733    0.67477    0.46050    1.000
    H467     H        0.59193    0.73369    0.44101    1.000
    H468     H        0.66937    0.88006    0.37816    1.000
    H469     H        0.71450    0.87049    0.32438    1.000
    H470     H        0.69552    0.82706    0.27269    1.000
    H471     H        0.63093    0.77068    0.35691    1.000
    H472     H        0.61321    0.76674    0.28278    1.000
    H473     H        0.66508    0.75917    0.26262    1.000
    C560     C        0.05000    0.28200    0.88900    1.000
    C561     C        0.03200    0.27300    0.82800    1.000
    C562     C        0.19000    0.24900    0.93400    1.000
    C563     C        0.20400    0.21500    0.94300    1.000
    C564     C        0.17800    0.19000    0.95600    1.000
    C565     C        0.13900    0.19800    0.95400    1.000
    C566     C        0.12400    0.23100    0.94500    1.000
    C567     C        0.17100    0.35200    0.86200    1.000
    C568     C        0.19000    0.35000    0.83000    1.000
    C569     C        0.18200    0.32400    0.80200    1.000
    C570     C        0.15900    0.29700    0.81100    1.000
    C571     C        0.14800    0.29600    0.84600    1.000
    C572     C        0.14500    0.27300    0.78400    1.000
    N173     N        0.07400    0.29700    0.89800    1.000
    N174     N        0.04900    0.28100    0.80500    1.000
    N175     N        0.15000    0.26100    0.94100    1.000
    N176     N        0.15600    0.32600    0.87400    1.000
    H474     H        0.20904    0.27117    0.91995    1.000
    H475     H        0.23568    0.20905    0.93944    1.000
    H476     H        0.18761    0.16183    0.96887    1.000
    H477     H        0.11733    0.17477    0.96050    1.000
    H478     H        0.09193    0.23369    0.94101    1.000
    H479     H        0.16937    0.38006    0.87816    1.000
    H480     H        0.21450    0.37049    0.82438    1.000
    H481     H        0.19552    0.32706    0.77269    1.000
    H482     H        0.13093    0.27068    0.85691    1.000
    H483     H        0.11321    0.26674    0.78278    1.000
    H484     H        0.16508    0.25917    0.76262    1.000
    C573     C        0.95000    0.21800    0.88900    1.000
    C574     C        0.96800    0.22700    0.82800    1.000
    C575     C        0.81000    0.25100    0.93400    1.000
    C576     C        0.79600    0.28500    0.94300    1.000
    C577     C        0.82200    0.31000    0.95600    1.000
    C578     C        0.86100    0.30200    0.95400    1.000
    C579     C        0.87600    0.26900    0.94500    1.000
    C580     C        0.82900    0.14800    0.86200    1.000
    C581     C        0.81000    0.15000    0.83000    1.000
    C582     C        0.81800    0.17600    0.80200    1.000
    C583     C        0.84100    0.20300    0.81100    1.000
    C584     C        0.85200    0.20400    0.84600    1.000
    C585     C        0.85500    0.22700    0.78400    1.000
    N177     N        0.92600    0.20300    0.89800    1.000
    N178     N        0.95100    0.21900    0.80500    1.000
    N179     N        0.85000    0.23900    0.94100    1.000
    N180     N        0.84400    0.17400    0.87400    1.000
    H485     H        0.79096    0.22883    0.91995    1.000
    H486     H        0.76432    0.29095    0.93944    1.000
    H487     H        0.81239    0.33817    0.96887    1.000
    H488     H        0.88267    0.32523    0.96050    1.000
    H489     H        0.90807    0.26631    0.94101    1.000
    H490     H        0.83063    0.11994    0.87816    1.000
    H491     H        0.78550    0.12951    0.82438    1.000
    H492     H        0.80448    0.17294    0.77269    1.000
    H493     H        0.86907    0.22932    0.85691    1.000
    H494     H        0.88679    0.23326    0.78278    1.000
    H495     H        0.83492    0.24083    0.76262    1.000
    C586     C        0.45000    0.71800    0.38900    1.000
    C587     C        0.46800    0.72700    0.32800    1.000
    C588     C        0.31000    0.75100    0.43400    1.000
    C589     C        0.29600    0.78500    0.44300    1.000
    C590     C        0.32200    0.81000    0.45600    1.000
    C591     C        0.36100    0.80200    0.45400    1.000
    C592     C        0.37600    0.76900    0.44500    1.000
    C593     C        0.32900    0.64800    0.36200    1.000
    C594     C        0.31000    0.65000    0.33000    1.000
    C595     C        0.31800    0.67600    0.30200    1.000
    C596     C        0.34100    0.70300    0.31100    1.000
    C597     C        0.35200    0.70400    0.34600    1.000
    C598     C        0.35500    0.72700    0.28400    1.000
    N181     N        0.42600    0.70300    0.39800    1.000
    N182     N        0.45100    0.71900    0.30500    1.000
    N183     N        0.35000    0.73900    0.44100    1.000
    N184     N        0.34400    0.67400    0.37400    1.000
    H496     H        0.29096    0.72883    0.41995    1.000
    H497     H        0.26432    0.79095    0.43944    1.000
    H498     H        0.31239    0.83817    0.46887    1.000
    H499     H        0.38267    0.82523    0.46050    1.000
    H500     H        0.40807    0.76631    0.44101    1.000
    H501     H        0.33063    0.61994    0.37816    1.000
    H502     H        0.28550    0.62951    0.32438    1.000
    H503     H        0.30448    0.67294    0.27269    1.000
    H504     H        0.36907    0.72932    0.35691    1.000
    H505     H        0.38679    0.73326    0.28278    1.000
    H506     H        0.33492    0.74083    0.26262    1.000
    C599     C        0.45000    0.28200    0.11100    1.000
    C600     C        0.46800    0.27300    0.17200    1.000
    C601     C        0.31000    0.24900    0.06600    1.000
    C602     C        0.29600    0.21500    0.05700    1.000
    C603     C        0.32200    0.19000    0.04400    1.000
    C604     C        0.36100    0.19800    0.04600    1.000
    C605     C        0.37600    0.23100    0.05500    1.000
    C606     C        0.32900    0.35200    0.13800    1.000
    C607     C        0.31000    0.35000    0.17000    1.000
    C608     C        0.31800    0.32400    0.19800    1.000
    C609     C        0.34100    0.29700    0.18900    1.000
    C610     C        0.35200    0.29600    0.15400    1.000
    C611     C        0.35500    0.27300    0.21600    1.000
    N185     N        0.42600    0.29700    0.10200    1.000
    N186     N        0.45100    0.28100    0.19500    1.000
    N187     N        0.35000    0.26100    0.05900    1.000
    N188     N        0.34400    0.32600    0.12600    1.000
    H507     H        0.29096    0.27117    0.08005    1.000
    H508     H        0.26432    0.20905    0.06056    1.000
    H509     H        0.31239    0.16183    0.03113    1.000
    H510     H        0.38267    0.17477    0.03950    1.000
    H511     H        0.40807    0.23369    0.05899    1.000
    H512     H        0.33063    0.38006    0.12184    1.000
    H513     H        0.28550    0.37049    0.17562    1.000
    H514     H        0.30448    0.32706    0.22731    1.000
    H515     H        0.36907    0.27068    0.14309    1.000
    H516     H        0.38679    0.26674    0.21722    1.000
    H517     H        0.33492    0.25917    0.23738    1.000
    C612     C        0.95000    0.78200    0.61100    1.000
    C613     C        0.96800    0.77300    0.67200    1.000
    C614     C        0.81000    0.74900    0.56600    1.000
    C615     C        0.79600    0.71500    0.55700    1.000
    C616     C        0.82200    0.69000    0.54400    1.000
    C617     C        0.86100    0.69800    0.54600    1.000
    C618     C        0.87600    0.73100    0.55500    1.000
    C619     C        0.82900    0.85200    0.63800    1.000
    C620     C        0.81000    0.85000    0.67000    1.000
    C621     C        0.81800    0.82400    0.69800    1.000
    C622     C        0.84100    0.79700    0.68900    1.000
    C623     C        0.85200    0.79600    0.65400    1.000
    C624     C        0.85500    0.77300    0.71600    1.000
    N189     N        0.92600    0.79700    0.60200    1.000
    N190     N        0.95100    0.78100    0.69500    1.000
    N191     N        0.85000    0.76100    0.55900    1.000
    N192     N        0.84400    0.82600    0.62600    1.000
    H518     H        0.79096    0.77117    0.58005    1.000
    H519     H        0.76432    0.70905    0.56056    1.000
    H520     H        0.81239    0.66183    0.53113    1.000
    H521     H        0.88267    0.67477    0.53950    1.000
    H522     H        0.90807    0.73369    0.55899    1.000
    H523     H        0.83063    0.88006    0.62184    1.000
    H524     H        0.78550    0.87049    0.67562    1.000
    H525     H        0.80448    0.82706    0.72731    1.000
    H526     H        0.86907    0.77068    0.64309    1.000
    H527     H        0.88679    0.76674    0.71722    1.000
    H528     H        0.83492    0.75917    0.73738    1.000
    C625     C        0.36100    0.53200    0.70000    1.000
    C626     C        0.42200    0.52300    0.71800    1.000
    C627     C        0.31600    0.49900    0.56000    1.000
    C628     C        0.30700    0.46500    0.54600    1.000
    C629     C        0.29400    0.44000    0.57200    1.000
    C630     C        0.29600    0.44800    0.61100    1.000
    C631     C        0.30500    0.48100    0.62600    1.000
    C632     C        0.38800    0.60200    0.57900    1.000
    C633     C        0.42000    0.60000    0.56000    1.000
    C634     C        0.44800    0.57400    0.56800    1.000
    C635     C        0.43900    0.54700    0.59100    1.000
    C636     C        0.40400    0.54600    0.60200    1.000
    C637     C        0.46600    0.52300    0.60500    1.000
    N193     N        0.35200    0.54700    0.67600    1.000
    N194     N        0.44500    0.53100    0.70100    1.000
    N195     N        0.30900    0.51100    0.60000    1.000
    N196     N        0.37600    0.57600    0.59400    1.000
    H529     H        0.33005    0.52117    0.54096    1.000
    H530     H        0.31056    0.45905    0.51432    1.000
    H531     H        0.28113    0.41183    0.56239    1.000
    H532     H        0.28950    0.42477    0.63267    1.000
    H533     H        0.30899    0.48369    0.65807    1.000
    H534     H        0.37184    0.63006    0.58063    1.000
    H535     H        0.42562    0.62049    0.53550    1.000
    H536     H        0.47731    0.57706    0.55448    1.000
    H537     H        0.39309    0.52068    0.61907    1.000
    H538     H        0.46722    0.51674    0.63679    1.000
    H539     H        0.48738    0.50917    0.58492    1.000
    C638     C        0.86100    0.03200    0.20000    1.000
    C639     C        0.92200    0.02300    0.21800    1.000
    C640     C        0.81600    0.99900    0.06000    1.000
    C641     C        0.80700    0.96500    0.04600    1.000
    C642     C        0.79400    0.94000    0.07200    1.000
    C643     C        0.79600    0.94800    0.11100    1.000
    C644     C        0.80500    0.98100    0.12600    1.000
    C645     C        0.88800    0.10200    0.07900    1.000
    C646     C        0.92000    0.10000    0.06000    1.000
    C647     C        0.94800    0.07400    0.06800    1.000
    C648     C        0.93900    0.04700    0.09100    1.000
    C649     C        0.90400    0.04600    0.10200    1.000
    C650     C        0.96600    0.02300    0.10500    1.000
    N197     N        0.85200    0.04700    0.17600    1.000
    N198     N        0.94500    0.03100    0.20100    1.000
    N199     N        0.80900    0.01100    0.10000    1.000
    N200     N        0.87600    0.07600    0.09400    1.000
    H540     H        0.83005    0.02117    0.04096    1.000
    H541     H        0.81056    0.95905    0.01432    1.000
    H542     H        0.78113    0.91183    0.06239    1.000
    H543     H        0.78950    0.92477    0.13267    1.000
    H544     H        0.80899    0.98369    0.15807    1.000
    H545     H        0.87184    0.13006    0.08063    1.000
    H546     H        0.92562    0.12049    0.03550    1.000
    H547     H        0.97731    0.07706    0.05448    1.000
    H548     H        0.89309    0.02068    0.11907    1.000
    H549     H        0.96722    0.01674    0.13679    1.000
    H550     H        0.98738    0.00917    0.08492    1.000
    C651     C        0.13900    0.46800    0.20000    1.000
    C652     C        0.07800    0.47700    0.21800    1.000
    C653     C        0.18400    0.50100    0.06000    1.000
    C654     C        0.19300    0.53500    0.04600    1.000
    C655     C        0.20600    0.56000    0.07200    1.000
    C656     C        0.20400    0.55200    0.11100    1.000
    C657     C        0.19500    0.51900    0.12600    1.000
    C658     C        0.11200    0.39800    0.07900    1.000
    C659     C        0.08000    0.40000    0.06000    1.000
    C660     C        0.05200    0.42600    0.06800    1.000
    C661     C        0.06100    0.45300    0.09100    1.000
    C662     C        0.09600    0.45400    0.10200    1.000
    C663     C        0.03400    0.47700    0.10500    1.000
    N201     N        0.14800    0.45300    0.17600    1.000
    N202     N        0.05500    0.46900    0.20100    1.000
    N203     N        0.19100    0.48900    0.10000    1.000
    N204     N        0.12400    0.42400    0.09400    1.000
    H551     H        0.16995    0.47883    0.04096    1.000
    H552     H        0.18944    0.54095    0.01432    1.000
    H553     H        0.21887    0.58817    0.06239    1.000
    H554     H        0.21050    0.57523    0.13267    1.000
    H555     H        0.19101    0.51631    0.15807    1.000
    H556     H        0.12816    0.36994    0.08063    1.000
    H557     H        0.07438    0.37951    0.03550    1.000
    H558     H        0.02269    0.42294    0.05448    1.000
    H559     H        0.10691    0.47932    0.11907    1.000
    H560     H        0.03278    0.48326    0.13679    1.000
    H561     H        0.01262    0.49083    0.08492    1.000
    C664     C        0.63900    0.96800    0.70000    1.000
    C665     C        0.57800    0.97700    0.71800    1.000
    C666     C        0.68400    0.00100    0.56000    1.000
    C667     C        0.69300    0.03500    0.54600    1.000
    C668     C        0.70600    0.06000    0.57200    1.000
    C669     C        0.70400    0.05200    0.61100    1.000
    C670     C        0.69500    0.01900    0.62600    1.000
    C671     C        0.61200    0.89800    0.57900    1.000
    C672     C        0.58000    0.90000    0.56000    1.000
    C673     C        0.55200    0.92600    0.56800    1.000
    C674     C        0.56100    0.95300    0.59100    1.000
    C675     C        0.59600    0.95400    0.60200    1.000
    C676     C        0.53400    0.97700    0.60500    1.000
    N205     N        0.64800    0.95300    0.67600    1.000
    N206     N        0.55500    0.96900    0.70100    1.000
    N207     N        0.69100    0.98900    0.60000    1.000
    N208     N        0.62400    0.92400    0.59400    1.000
    H562     H        0.66995    0.97883    0.54096    1.000
    H563     H        0.68944    0.04095    0.51432    1.000
    H564     H        0.71887    0.08817    0.56239    1.000
    H565     H        0.71050    0.07523    0.63267    1.000
    H566     H        0.69101    0.01631    0.65807    1.000
    H567     H        0.62816    0.86994    0.58063    1.000
    H568     H        0.57438    0.87951    0.53550    1.000
    H569     H        0.52269    0.92294    0.55448    1.000
    H570     H        0.60691    0.97932    0.61907    1.000
    H571     H        0.53278    0.98326    0.63679    1.000
    H572     H        0.51262    0.99083    0.58492    1.000
    C677     C        0.63900    0.03200    0.80000    1.000
    C678     C        0.57800    0.02300    0.78200    1.000
    C679     C        0.68400    0.99900    0.94000    1.000
    C680     C        0.69300    0.96500    0.95400    1.000
    C681     C        0.70600    0.94000    0.92800    1.000
    C682     C        0.70400    0.94800    0.88900    1.000
    C683     C        0.69500    0.98100    0.87400    1.000
    C684     C        0.61200    0.10200    0.92100    1.000
    C685     C        0.58000    0.10000    0.94000    1.000
    C686     C        0.55200    0.07400    0.93200    1.000
    C687     C        0.56100    0.04700    0.90900    1.000
    C688     C        0.59600    0.04600    0.89800    1.000
    C689     C        0.53400    0.02300    0.89500    1.000
    N209     N        0.64800    0.04700    0.82400    1.000
    N210     N        0.55500    0.03100    0.79900    1.000
    N211     N        0.69100    0.01100    0.90000    1.000
    N212     N        0.62400    0.07600    0.90600    1.000
    H573     H        0.66995    0.02117    0.95904    1.000
    H574     H        0.68944    0.95905    0.98568    1.000
    H575     H        0.71887    0.91183    0.93761    1.000
    H576     H        0.71050    0.92477    0.86733    1.000
    H577     H        0.69101    0.98369    0.84193    1.000
    H578     H        0.62816    0.13006    0.91937    1.000
    H579     H        0.57438    0.12049    0.96450    1.000
    H580     H        0.52269    0.07706    0.94552    1.000
    H581     H        0.60691    0.02068    0.88093    1.000
    H582     H        0.53278    0.01674    0.86321    1.000
    H583     H        0.51262    0.00917    0.91508    1.000
    C690     C        0.13900    0.53200    0.30000    1.000
    C691     C        0.07800    0.52300    0.28200    1.000
    C692     C        0.18400    0.49900    0.44000    1.000
    C693     C        0.19300    0.46500    0.45400    1.000
    C694     C        0.20600    0.44000    0.42800    1.000
    C695     C        0.20400    0.44800    0.38900    1.000
    C696     C        0.19500    0.48100    0.37400    1.000
    C697     C        0.11200    0.60200    0.42100    1.000
    C698     C        0.08000    0.60000    0.44000    1.000
    C699     C        0.05200    0.57400    0.43200    1.000
    C700     C        0.06100    0.54700    0.40900    1.000
    C701     C        0.09600    0.54600    0.39800    1.000
    C702     C        0.03400    0.52300    0.39500    1.000
    N213     N        0.14800    0.54700    0.32400    1.000
    N214     N        0.05500    0.53100    0.29900    1.000
    N215     N        0.19100    0.51100    0.40000    1.000
    N216     N        0.12400    0.57600    0.40600    1.000
    H584     H        0.16995    0.52117    0.45904    1.000
    H585     H        0.18944    0.45905    0.48568    1.000
    H586     H        0.21887    0.41183    0.43761    1.000
    H587     H        0.21050    0.42477    0.36733    1.000
    H588     H        0.19101    0.48369    0.34193    1.000
    H589     H        0.12816    0.63006    0.41937    1.000
    H590     H        0.07438    0.62049    0.46450    1.000
    H591     H        0.02269    0.57706    0.44552    1.000
    H592     H        0.10691    0.52068    0.38093    1.000
    H593     H        0.03278    0.51674    0.36321    1.000
    H594     H        0.01262    0.50917    0.41508    1.000
    C703     C        0.86100    0.96800    0.30000    1.000
    C704     C        0.92200    0.97700    0.28200    1.000
    C705     C        0.81600    0.00100    0.44000    1.000
    C706     C        0.80700    0.03500    0.45400    1.000
    C707     C        0.79400    0.06000    0.42800    1.000
    C708     C        0.79600    0.05200    0.38900    1.000
    C709     C        0.80500    0.01900    0.37400    1.000
    C710     C        0.88800    0.89800    0.42100    1.000
    C711     C        0.92000    0.90000    0.44000    1.000
    C712     C        0.94800    0.92600    0.43200    1.000
    C713     C        0.93900    0.95300    0.40900    1.000
    C714     C        0.90400    0.95400    0.39800    1.000
    C715     C        0.96600    0.97700    0.39500    1.000
    N217     N        0.85200    0.95300    0.32400    1.000
    N218     N        0.94500    0.96900    0.29900    1.000
    N219     N        0.80900    0.98900    0.40000    1.000
    N220     N        0.87600    0.92400    0.40600    1.000
    H595     H        0.83005    0.97883    0.45904    1.000
    H596     H        0.81056    0.04095    0.48568    1.000
    H597     H        0.78113    0.08817    0.43761    1.000
    H598     H        0.78950    0.07523    0.36733    1.000
    H599     H        0.80899    0.01631    0.34193    1.000
    H600     H        0.87184    0.86994    0.41937    1.000
    H601     H        0.92562    0.87951    0.46450    1.000
    H602     H        0.97731    0.92294    0.44552    1.000
    H603     H        0.89309    0.97932    0.38093    1.000
    H604     H        0.96722    0.98326    0.36321    1.000
    H605     H        0.98738    0.99083    0.41508    1.000
    C716     C        0.36100    0.46800    0.80000    1.000
    C717     C        0.42200    0.47700    0.78200    1.000
    C718     C        0.31600    0.50100    0.94000    1.000
    C719     C        0.30700    0.53500    0.95400    1.000
    C720     C        0.29400    0.56000    0.92800    1.000
    C721     C        0.29600    0.55200    0.88900    1.000
    C722     C        0.30500    0.51900    0.87400    1.000
    C723     C        0.38800    0.39800    0.92100    1.000
    C724     C        0.42000    0.40000    0.94000    1.000
    C725     C        0.44800    0.42600    0.93200    1.000
    C726     C        0.43900    0.45300    0.90900    1.000
    C727     C        0.40400    0.45400    0.89800    1.000
    C728     C        0.46600    0.47700    0.89500    1.000
    N221     N        0.35200    0.45300    0.82400    1.000
    N222     N        0.44500    0.46900    0.79900    1.000
    N223     N        0.30900    0.48900    0.90000    1.000
    N224     N        0.37600    0.42400    0.90600    1.000
    H606     H        0.33005    0.47883    0.95904    1.000
    H607     H        0.31056    0.54095    0.98568    1.000
    H608     H        0.28113    0.58817    0.93761    1.000
    H609     H        0.28950    0.57523    0.86733    1.000
    H610     H        0.30899    0.51631    0.84193    1.000
    H611     H        0.37184    0.36994    0.91937    1.000
    H612     H        0.42562    0.37951    0.96450    1.000
    H613     H        0.47731    0.42294    0.94552    1.000
    H614     H        0.39309    0.47932    0.88093    1.000
    H615     H        0.46722    0.48326    0.86321    1.000
    H616     H        0.48738    0.49083    0.91508    1.000
    C729     C        0.70000    0.36100    0.53200    1.000
    C730     C        0.71800    0.42200    0.52300    1.000
    C731     C        0.56000    0.31600    0.49900    1.000
    C732     C        0.54600    0.30700    0.46500    1.000
    C733     C        0.57200    0.29400    0.44000    1.000
    C734     C        0.61100    0.29600    0.44800    1.000
    C735     C        0.62600    0.30500    0.48100    1.000
    C736     C        0.57900    0.38800    0.60200    1.000
    C737     C        0.56000    0.42000    0.60000    1.000
    C738     C        0.56800    0.44800    0.57400    1.000
    C739     C        0.59100    0.43900    0.54700    1.000
    C740     C        0.60200    0.40400    0.54600    1.000
    C741     C        0.60500    0.46600    0.52300    1.000
    N225     N        0.67600    0.35200    0.54700    1.000
    N226     N        0.70100    0.44500    0.53100    1.000
    N227     N        0.60000    0.30900    0.51100    1.000
    N228     N        0.59400    0.37600    0.57600    1.000
    H617     H        0.54096    0.33005    0.52117    1.000
    H618     H        0.51432    0.31056    0.45905    1.000
    H619     H        0.56239    0.28113    0.41183    1.000
    H620     H        0.63267    0.28950    0.42477    1.000
    H621     H        0.65807    0.30899    0.48369    1.000
    H622     H        0.58063    0.37184    0.63006    1.000
    H623     H        0.53550    0.42562    0.62049    1.000
    H624     H        0.55448    0.47731    0.57706    1.000
    H625     H        0.61907    0.39309    0.52068    1.000
    H626     H        0.63679    0.46722    0.51674    1.000
    H627     H        0.58492    0.48738    0.50917    1.000
    C742     C        0.20000    0.86100    0.03200    1.000
    C743     C        0.21800    0.92200    0.02300    1.000
    C744     C        0.06000    0.81600    0.99900    1.000
    C745     C        0.04600    0.80700    0.96500    1.000
    C746     C        0.07200    0.79400    0.94000    1.000
    C747     C        0.11100    0.79600    0.94800    1.000
    C748     C        0.12600    0.80500    0.98100    1.000
    C749     C        0.07900    0.88800    0.10200    1.000
    C750     C        0.06000    0.92000    0.10000    1.000
    C751     C        0.06800    0.94800    0.07400    1.000
    C752     C        0.09100    0.93900    0.04700    1.000
    C753     C        0.10200    0.90400    0.04600    1.000
    C754     C        0.10500    0.96600    0.02300    1.000
    N229     N        0.17600    0.85200    0.04700    1.000
    N230     N        0.20100    0.94500    0.03100    1.000
    N231     N        0.10000    0.80900    0.01100    1.000
    N232     N        0.09400    0.87600    0.07600    1.000
    H628     H        0.04096    0.83005    0.02117    1.000
    H629     H        0.01432    0.81056    0.95905    1.000
    H630     H        0.06239    0.78113    0.91183    1.000
    H631     H        0.13267    0.78950    0.92477    1.000
    H632     H        0.15807    0.80899    0.98369    1.000
    H633     H        0.08063    0.87184    0.13006    1.000
    H634     H        0.03550    0.92562    0.12049    1.000
    H635     H        0.05448    0.97731    0.07706    1.000
    H636     H        0.11907    0.89309    0.02068    1.000
    H637     H        0.13679    0.96722    0.01674    1.000
    H638     H        0.08492    0.98738    0.00917    1.000
    C755     C        0.20000    0.13900    0.46800    1.000
    C756     C        0.21800    0.07800    0.47700    1.000
    C757     C        0.06000    0.18400    0.50100    1.000
    C758     C        0.04600    0.19300    0.53500    1.000
    C759     C        0.07200    0.20600    0.56000    1.000
    C760     C        0.11100    0.20400    0.55200    1.000
    C761     C        0.12600    0.19500    0.51900    1.000
    C762     C        0.07900    0.11200    0.39800    1.000
    C763     C        0.06000    0.08000    0.40000    1.000
    C764     C        0.06800    0.05200    0.42600    1.000
    C765     C        0.09100    0.06100    0.45300    1.000
    C766     C        0.10200    0.09600    0.45400    1.000
    C767     C        0.10500    0.03400    0.47700    1.000
    N233     N        0.17600    0.14800    0.45300    1.000
    N234     N        0.20100    0.05500    0.46900    1.000
    N235     N        0.10000    0.19100    0.48900    1.000
    N236     N        0.09400    0.12400    0.42400    1.000
    H639     H        0.04096    0.16995    0.47883    1.000
    H640     H        0.01432    0.18944    0.54095    1.000
    H641     H        0.06239    0.21887    0.58817    1.000
    H642     H        0.13267    0.21050    0.57523    1.000
    H643     H        0.15807    0.19101    0.51631    1.000
    H644     H        0.08063    0.12816    0.36994    1.000
    H645     H        0.03550    0.07438    0.37951    1.000
    H646     H        0.05448    0.02269    0.42294    1.000
    H647     H        0.11907    0.10691    0.47932    1.000
    H648     H        0.13679    0.03278    0.48326    1.000
    H649     H        0.08492    0.01262    0.49083    1.000
    C768     C        0.70000    0.63900    0.96800    1.000
    C769     C        0.71800    0.57800    0.97700    1.000
    C770     C        0.56000    0.68400    0.00100    1.000
    C771     C        0.54600    0.69300    0.03500    1.000
    C772     C        0.57200    0.70600    0.06000    1.000
    C773     C        0.61100    0.70400    0.05200    1.000
    C774     C        0.62600    0.69500    0.01900    1.000
    C775     C        0.57900    0.61200    0.89800    1.000
    C776     C        0.56000    0.58000    0.90000    1.000
    C777     C        0.56800    0.55200    0.92600    1.000
    C778     C        0.59100    0.56100    0.95300    1.000
    C779     C        0.60200    0.59600    0.95400    1.000
    C780     C        0.60500    0.53400    0.97700    1.000
    N237     N        0.67600    0.64800    0.95300    1.000
    N238     N        0.70100    0.55500    0.96900    1.000
    N239     N        0.60000    0.69100    0.98900    1.000
    N240     N        0.59400    0.62400    0.92400    1.000
    H650     H        0.54096    0.66995    0.97883    1.000
    H651     H        0.51432    0.68944    0.04095    1.000
    H652     H        0.56239    0.71887    0.08817    1.000
    H653     H        0.63267    0.71050    0.07523    1.000
    H654     H        0.65807    0.69101    0.01631    1.000
    H655     H        0.58063    0.62816    0.86994    1.000
    H656     H        0.53550    0.57438    0.87951    1.000
    H657     H        0.55448    0.52269    0.92294    1.000
    H658     H        0.61907    0.60691    0.97932    1.000
    H659     H        0.63679    0.53278    0.98326    1.000
    H660     H        0.58492    0.51262    0.99083    1.000
    C781     C        0.80000    0.63900    0.03200    1.000
    C782     C        0.78200    0.57800    0.02300    1.000
    C783     C        0.94000    0.68400    0.99900    1.000
    C784     C        0.95400    0.69300    0.96500    1.000
    C785     C        0.92800    0.70600    0.94000    1.000
    C786     C        0.88900    0.70400    0.94800    1.000
    C787     C        0.87400    0.69500    0.98100    1.000
    C788     C        0.92100    0.61200    0.10200    1.000
    C789     C        0.94000    0.58000    0.10000    1.000
    C790     C        0.93200    0.55200    0.07400    1.000
    C791     C        0.90900    0.56100    0.04700    1.000
    C792     C        0.89800    0.59600    0.04600    1.000
    C793     C        0.89500    0.53400    0.02300    1.000
    N241     N        0.82400    0.64800    0.04700    1.000
    N242     N        0.79900    0.55500    0.03100    1.000
    N243     N        0.90000    0.69100    0.01100    1.000
    N244     N        0.90600    0.62400    0.07600    1.000
    H661     H        0.95904    0.66995    0.02117    1.000
    H662     H        0.98568    0.68944    0.95905    1.000
    H663     H        0.93761    0.71887    0.91183    1.000
    H664     H        0.86733    0.71050    0.92477    1.000
    H665     H        0.84193    0.69101    0.98369    1.000
    H666     H        0.91937    0.62816    0.13006    1.000
    H667     H        0.96450    0.57438    0.12049    1.000
    H668     H        0.94552    0.52269    0.07706    1.000
    H669     H        0.88093    0.60691    0.02068    1.000
    H670     H        0.86321    0.53278    0.01674    1.000
    H671     H        0.91508    0.51262    0.00917    1.000
    C794     C        0.30000    0.13900    0.53200    1.000
    C795     C        0.28200    0.07800    0.52300    1.000
    C796     C        0.44000    0.18400    0.49900    1.000
    C797     C        0.45400    0.19300    0.46500    1.000
    C798     C        0.42800    0.20600    0.44000    1.000
    C799     C        0.38900    0.20400    0.44800    1.000
    C800     C        0.37400    0.19500    0.48100    1.000
    C801     C        0.42100    0.11200    0.60200    1.000
    C802     C        0.44000    0.08000    0.60000    1.000
    C803     C        0.43200    0.05200    0.57400    1.000
    C804     C        0.40900    0.06100    0.54700    1.000
    C805     C        0.39800    0.09600    0.54600    1.000
    C806     C        0.39500    0.03400    0.52300    1.000
    N245     N        0.32400    0.14800    0.54700    1.000
    N246     N        0.29900    0.05500    0.53100    1.000
    N247     N        0.40000    0.19100    0.51100    1.000
    N248     N        0.40600    0.12400    0.57600    1.000
    H672     H        0.45904    0.16995    0.52117    1.000
    H673     H        0.48568    0.18944    0.45905    1.000
    H674     H        0.43761    0.21887    0.41183    1.000
    H675     H        0.36733    0.21050    0.42477    1.000
    H676     H        0.34193    0.19101    0.48369    1.000
    H677     H        0.41937    0.12816    0.63006    1.000
    H678     H        0.46450    0.07438    0.62049    1.000
    H679     H        0.44552    0.02269    0.57706    1.000
    H680     H        0.38093    0.10691    0.52068    1.000
    H681     H        0.36321    0.03278    0.51674    1.000
    H682     H        0.41508    0.01262    0.50917    1.000
    C807     C        0.30000    0.86100    0.96800    1.000
    C808     C        0.28200    0.92200    0.97700    1.000
    C809     C        0.44000    0.81600    0.00100    1.000
    C810     C        0.45400    0.80700    0.03500    1.000
    C811     C        0.42800    0.79400    0.06000    1.000
    C812     C        0.38900    0.79600    0.05200    1.000
    C813     C        0.37400    0.80500    0.01900    1.000
    C814     C        0.42100    0.88800    0.89800    1.000
    C815     C        0.44000    0.92000    0.90000    1.000
    C816     C        0.43200    0.94800    0.92600    1.000
    C817     C        0.40900    0.93900    0.95300    1.000
    C818     C        0.39800    0.90400    0.95400    1.000
    C819     C        0.39500    0.96600    0.97700    1.000
    N249     N        0.32400    0.85200    0.95300    1.000
    N250     N        0.29900    0.94500    0.96900    1.000
    N251     N        0.40000    0.80900    0.98900    1.000
    N252     N        0.40600    0.87600    0.92400    1.000
    H683     H        0.45904    0.83005    0.97883    1.000
    H684     H        0.48568    0.81056    0.04095    1.000
    H685     H        0.43761    0.78113    0.08817    1.000
    H686     H        0.36733    0.78950    0.07523    1.000
    H687     H        0.34193    0.80899    0.01631    1.000
    H688     H        0.41937    0.87184    0.86994    1.000
    H689     H        0.46450    0.92562    0.87951    1.000
    H690     H        0.44552    0.97731    0.92294    1.000
    H691     H        0.38093    0.89309    0.97932    1.000
    H692     H        0.36321    0.96722    0.98326    1.000
    H693     H        0.41508    0.98738    0.99083    1.000
    C820     C        0.80000    0.36100    0.46800    1.000
    C821     C        0.78200    0.42200    0.47700    1.000
    C822     C        0.94000    0.31600    0.50100    1.000
    C823     C        0.95400    0.30700    0.53500    1.000
    C824     C        0.92800    0.29400    0.56000    1.000
    C825     C        0.88900    0.29600    0.55200    1.000
    C826     C        0.87400    0.30500    0.51900    1.000
    C827     C        0.92100    0.38800    0.39800    1.000
    C828     C        0.94000    0.42000    0.40000    1.000
    C829     C        0.93200    0.44800    0.42600    1.000
    C830     C        0.90900    0.43900    0.45300    1.000
    C831     C        0.89800    0.40400    0.45400    1.000
    C832     C        0.89500    0.46600    0.47700    1.000
    N253     N        0.82400    0.35200    0.45300    1.000
    N254     N        0.79900    0.44500    0.46900    1.000
    N255     N        0.90000    0.30900    0.48900    1.000
    N256     N        0.90600    0.37600    0.42400    1.000
    H694     H        0.95904    0.33005    0.47883    1.000
    H695     H        0.98568    0.31056    0.54095    1.000
    H696     H        0.93761    0.28113    0.58817    1.000
    H697     H        0.86733    0.28950    0.57523    1.000
    H698     H        0.84193    0.30899    0.51631    1.000
    H699     H        0.91937    0.37184    0.36994    1.000
    H700     H        0.96450    0.42562    0.37951    1.000
    H701     H        0.94552    0.47731    0.42294    1.000
    H702     H        0.88093    0.39309    0.47932    1.000
    H703     H        0.86321    0.46722    0.48326    1.000
    H704     H        0.91508    0.48738    0.49083    1.000
    C833     C        0.53200    0.70000    0.36100    1.000
    C834     C        0.52300    0.71800    0.42200    1.000
    C835     C        0.49900    0.56000    0.31600    1.000
    C836     C        0.46500    0.54600    0.30700    1.000
    C837     C        0.44000    0.57200    0.29400    1.000
    C838     C        0.44800    0.61100    0.29600    1.000
    C839     C        0.48100    0.62600    0.30500    1.000
    C840     C        0.60200    0.57900    0.38800    1.000
    C841     C        0.60000    0.56000    0.42000    1.000
    C842     C        0.57400    0.56800    0.44800    1.000
    C843     C        0.54700    0.59100    0.43900    1.000
    C844     C        0.54600    0.60200    0.40400    1.000
    C845     C        0.52300    0.60500    0.46600    1.000
    N257     N        0.54700    0.67600    0.35200    1.000
    N258     N        0.53100    0.70100    0.44500    1.000
    N259     N        0.51100    0.60000    0.30900    1.000
    N260     N        0.57600    0.59400    0.37600    1.000
    H705     H        0.52117    0.54096    0.33005    1.000
    H706     H        0.45905    0.51432    0.31056    1.000
    H707     H        0.41183    0.56239    0.28113    1.000
    H708     H        0.42477    0.63267    0.28950    1.000
    H709     H        0.48369    0.65807    0.30899    1.000
    H710     H        0.63006    0.58063    0.37184    1.000
    H711     H        0.62049    0.53550    0.42562    1.000
    H712     H        0.57706    0.55448    0.47731    1.000
    H713     H        0.52068    0.61907    0.39309    1.000
    H714     H        0.51674    0.63679    0.46722    1.000
    H715     H        0.50917    0.58492    0.48738    1.000
    C846     C        0.03200    0.20000    0.86100    1.000
    C847     C        0.02300    0.21800    0.92200    1.000
    C848     C        0.99900    0.06000    0.81600    1.000
    C849     C        0.96500    0.04600    0.80700    1.000
    C850     C        0.94000    0.07200    0.79400    1.000
    C851     C        0.94800    0.11100    0.79600    1.000
    C852     C        0.98100    0.12600    0.80500    1.000
    C853     C        0.10200    0.07900    0.88800    1.000
    C854     C        0.10000    0.06000    0.92000    1.000
    C855     C        0.07400    0.06800    0.94800    1.000
    C856     C        0.04700    0.09100    0.93900    1.000
    C857     C        0.04600    0.10200    0.90400    1.000
    C858     C        0.02300    0.10500    0.96600    1.000
    N261     N        0.04700    0.17600    0.85200    1.000
    N262     N        0.03100    0.20100    0.94500    1.000
    N263     N        0.01100    0.10000    0.80900    1.000
    N264     N        0.07600    0.09400    0.87600    1.000
    H716     H        0.02117    0.04096    0.83005    1.000
    H717     H        0.95905    0.01432    0.81056    1.000
    H718     H        0.91183    0.06239    0.78113    1.000
    H719     H        0.92477    0.13267    0.78950    1.000
    H720     H        0.98369    0.15807    0.80899    1.000
    H721     H        0.13006    0.08063    0.87184    1.000
    H722     H        0.12049    0.03550    0.92562    1.000
    H723     H        0.07706    0.05448    0.97731    1.000
    H724     H        0.02068    0.11907    0.89309    1.000
    H725     H        0.01674    0.13679    0.96722    1.000
    H726     H        0.00917    0.08492    0.98738    1.000
    C859     C        0.46800    0.20000    0.13900    1.000
    C860     C        0.47700    0.21800    0.07800    1.000
    C861     C        0.50100    0.06000    0.18400    1.000
    C862     C        0.53500    0.04600    0.19300    1.000
    C863     C        0.56000    0.07200    0.20600    1.000
    C864     C        0.55200    0.11100    0.20400    1.000
    C865     C        0.51900    0.12600    0.19500    1.000
    C866     C        0.39800    0.07900    0.11200    1.000
    C867     C        0.40000    0.06000    0.08000    1.000
    C868     C        0.42600    0.06800    0.05200    1.000
    C869     C        0.45300    0.09100    0.06100    1.000
    C870     C        0.45400    0.10200    0.09600    1.000
    C871     C        0.47700    0.10500    0.03400    1.000
    N265     N        0.45300    0.17600    0.14800    1.000
    N266     N        0.46900    0.20100    0.05500    1.000
    N267     N        0.48900    0.10000    0.19100    1.000
    N268     N        0.42400    0.09400    0.12400    1.000
    H727     H        0.47883    0.04096    0.16995    1.000
    H728     H        0.54095    0.01432    0.18944    1.000
    H729     H        0.58817    0.06239    0.21887    1.000
    H730     H        0.57523    0.13267    0.21050    1.000
    H731     H        0.51631    0.15807    0.19101    1.000
    H732     H        0.36994    0.08063    0.12816    1.000
    H733     H        0.37951    0.03550    0.07438    1.000
    H734     H        0.42294    0.05448    0.02269    1.000
    H735     H        0.47932    0.11907    0.10691    1.000
    H736     H        0.48326    0.13679    0.03278    1.000
    H737     H        0.49083    0.08492    0.01262    1.000
    C872     C        0.96800    0.70000    0.63900    1.000
    C873     C        0.97700    0.71800    0.57800    1.000
    C874     C        0.00100    0.56000    0.68400    1.000
    C875     C        0.03500    0.54600    0.69300    1.000
    C876     C        0.06000    0.57200    0.70600    1.000
    C877     C        0.05200    0.61100    0.70400    1.000
    C878     C        0.01900    0.62600    0.69500    1.000
    C879     C        0.89800    0.57900    0.61200    1.000
    C880     C        0.90000    0.56000    0.58000    1.000
    C881     C        0.92600    0.56800    0.55200    1.000
    C882     C        0.95300    0.59100    0.56100    1.000
    C883     C        0.95400    0.60200    0.59600    1.000
    C884     C        0.97700    0.60500    0.53400    1.000
    N269     N        0.95300    0.67600    0.64800    1.000
    N270     N        0.96900    0.70100    0.55500    1.000
    N271     N        0.98900    0.60000    0.69100    1.000
    N272     N        0.92400    0.59400    0.62400    1.000
    H738     H        0.97883    0.54096    0.66995    1.000
    H739     H        0.04095    0.51432    0.68944    1.000
    H740     H        0.08817    0.56239    0.71887    1.000
    H741     H        0.07523    0.63267    0.71050    1.000
    H742     H        0.01631    0.65807    0.69101    1.000
    H743     H        0.86994    0.58063    0.62816    1.000
    H744     H        0.87951    0.53550    0.57438    1.000
    H745     H        0.92294    0.55448    0.52269    1.000
    H746     H        0.97932    0.61907    0.60691    1.000
    H747     H        0.98326    0.63679    0.53278    1.000
    H748     H        0.99083    0.58492    0.51262    1.000
    C885     C        0.03200    0.80000    0.63900    1.000
    C886     C        0.02300    0.78200    0.57800    1.000
    C887     C        0.99900    0.94000    0.68400    1.000
    C888     C        0.96500    0.95400    0.69300    1.000
    C889     C        0.94000    0.92800    0.70600    1.000
    C890     C        0.94800    0.88900    0.70400    1.000
    C891     C        0.98100    0.87400    0.69500    1.000
    C892     C        0.10200    0.92100    0.61200    1.000
    C893     C        0.10000    0.94000    0.58000    1.000
    C894     C        0.07400    0.93200    0.55200    1.000
    C895     C        0.04700    0.90900    0.56100    1.000
    C896     C        0.04600    0.89800    0.59600    1.000
    C897     C        0.02300    0.89500    0.53400    1.000
    N273     N        0.04700    0.82400    0.64800    1.000
    N274     N        0.03100    0.79900    0.55500    1.000
    N275     N        0.01100    0.90000    0.69100    1.000
    N276     N        0.07600    0.90600    0.62400    1.000
    H749     H        0.02117    0.95904    0.66995    1.000
    H750     H        0.95905    0.98568    0.68944    1.000
    H751     H        0.91183    0.93761    0.71887    1.000
    H752     H        0.92477    0.86733    0.71050    1.000
    H753     H        0.98369    0.84193    0.69101    1.000
    H754     H        0.13006    0.91937    0.62816    1.000
    H755     H        0.12049    0.96450    0.57438    1.000
    H756     H        0.07706    0.94552    0.52269    1.000
    H757     H        0.02068    0.88093    0.60691    1.000
    H758     H        0.01674    0.86321    0.53278    1.000
    H759     H        0.00917    0.91508    0.51262    1.000
    C898     C        0.53200    0.30000    0.13900    1.000
    C899     C        0.52300    0.28200    0.07800    1.000
    C900     C        0.49900    0.44000    0.18400    1.000
    C901     C        0.46500    0.45400    0.19300    1.000
    C902     C        0.44000    0.42800    0.20600    1.000
    C903     C        0.44800    0.38900    0.20400    1.000
    C904     C        0.48100    0.37400    0.19500    1.000
    C905     C        0.60200    0.42100    0.11200    1.000
    C906     C        0.60000    0.44000    0.08000    1.000
    C907     C        0.57400    0.43200    0.05200    1.000
    C908     C        0.54700    0.40900    0.06100    1.000
    C909     C        0.54600    0.39800    0.09600    1.000
    C910     C        0.52300    0.39500    0.03400    1.000
    N277     N        0.54700    0.32400    0.14800    1.000
    N278     N        0.53100    0.29900    0.05500    1.000
    N279     N        0.51100    0.40000    0.19100    1.000
    N280     N        0.57600    0.40600    0.12400    1.000
    H760     H        0.52117    0.45904    0.16995    1.000
    H761     H        0.45905    0.48568    0.18944    1.000
    H762     H        0.41183    0.43761    0.21887    1.000
    H763     H        0.42477    0.36733    0.21050    1.000
    H764     H        0.48369    0.34193    0.19101    1.000
    H765     H        0.63006    0.41937    0.12816    1.000
    H766     H        0.62049    0.46450    0.07438    1.000
    H767     H        0.57706    0.44552    0.02269    1.000
    H768     H        0.52068    0.38093    0.10691    1.000
    H769     H        0.51674    0.36321    0.03278    1.000
    H770     H        0.50917    0.41508    0.01262    1.000
    C911     C        0.96800    0.30000    0.86100    1.000
    C912     C        0.97700    0.28200    0.92200    1.000
    C913     C        0.00100    0.44000    0.81600    1.000
    C914     C        0.03500    0.45400    0.80700    1.000
    C915     C        0.06000    0.42800    0.79400    1.000
    C916     C        0.05200    0.38900    0.79600    1.000
    C917     C        0.01900    0.37400    0.80500    1.000
    C918     C        0.89800    0.42100    0.88800    1.000
    C919     C        0.90000    0.44000    0.92000    1.000
    C920     C        0.92600    0.43200    0.94800    1.000
    C921     C        0.95300    0.40900    0.93900    1.000
    C922     C        0.95400    0.39800    0.90400    1.000
    C923     C        0.97700    0.39500    0.96600    1.000
    N281     N        0.95300    0.32400    0.85200    1.000
    N282     N        0.96900    0.29900    0.94500    1.000
    N283     N        0.98900    0.40000    0.80900    1.000
    N284     N        0.92400    0.40600    0.87600    1.000
    H771     H        0.97883    0.45904    0.83005    1.000
    H772     H        0.04095    0.48568    0.81056    1.000
    H773     H        0.08817    0.43761    0.78113    1.000
    H774     H        0.07523    0.36733    0.78950    1.000
    H775     H        0.01631    0.34193    0.80899    1.000
    H776     H        0.86994    0.41937    0.87184    1.000
    H777     H        0.87951    0.46450    0.92562    1.000
    H778     H        0.92294    0.44552    0.97731    1.000
    H779     H        0.97932    0.38093    0.89309    1.000
    H780     H        0.98326    0.36321    0.96722    1.000
    H781     H        0.99083    0.41508    0.98738    1.000
    C924     C        0.46800    0.80000    0.36100    1.000
    C925     C        0.47700    0.78200    0.42200    1.000
    C926     C        0.50100    0.94000    0.31600    1.000
    C927     C        0.53500    0.95400    0.30700    1.000
    C928     C        0.56000    0.92800    0.29400    1.000
    C929     C        0.55200    0.88900    0.29600    1.000
    C930     C        0.51900    0.87400    0.30500    1.000
    C931     C        0.39800    0.92100    0.38800    1.000
    C932     C        0.40000    0.94000    0.42000    1.000
    C933     C        0.42600    0.93200    0.44800    1.000
    C934     C        0.45300    0.90900    0.43900    1.000
    C935     C        0.45400    0.89800    0.40400    1.000
    C936     C        0.47700    0.89500    0.46600    1.000
    N285     N        0.45300    0.82400    0.35200    1.000
    N286     N        0.46900    0.79900    0.44500    1.000
    N287     N        0.48900    0.90000    0.30900    1.000
    N288     N        0.42400    0.90600    0.37600    1.000
    H782     H        0.47883    0.95904    0.33005    1.000
    H783     H        0.54095    0.98568    0.31056    1.000
    H784     H        0.58817    0.93761    0.28113    1.000
    H785     H        0.57523    0.86733    0.28950    1.000
    H786     H        0.51631    0.84193    0.30899    1.000
    H787     H        0.36994    0.91937    0.37184    1.000
    H788     H        0.37951    0.96450    0.42562    1.000
    H789     H        0.42294    0.94552    0.47731    1.000
    H790     H        0.47932    0.88093    0.39309    1.000
    H791     H        0.48326    0.86321    0.46722    1.000
    H792     H        0.49083    0.91508    0.48738    1.000
    C937     C        0.78200    0.11100    0.05000    1.000
    C938     C        0.77300    0.17200    0.03200    1.000
    C939     C        0.74900    0.06600    0.19000    1.000
    C940     C        0.71500    0.05700    0.20400    1.000
    C941     C        0.69000    0.04400    0.17800    1.000
    C942     C        0.69800    0.04600    0.13900    1.000
    C943     C        0.73100    0.05500    0.12400    1.000
    C944     C        0.85200    0.13800    0.17100    1.000
    C945     C        0.85000    0.17000    0.19000    1.000
    C946     C        0.82400    0.19800    0.18200    1.000
    C947     C        0.79700    0.18900    0.15900    1.000
    C948     C        0.79600    0.15400    0.14800    1.000
    C949     C        0.77300    0.21600    0.14500    1.000
    N289     N        0.79700    0.10200    0.07400    1.000
    N290     N        0.78100    0.19500    0.04900    1.000
    N291     N        0.76100    0.05900    0.15000    1.000
    N292     N        0.82600    0.12600    0.15600    1.000
    H793     H        0.77117    0.08005    0.20904    1.000
    H794     H        0.70905    0.06056    0.23568    1.000
    H795     H        0.66183    0.03113    0.18761    1.000
    H796     H        0.67477    0.03950    0.11733    1.000
    H797     H        0.73369    0.05899    0.09193    1.000
    H798     H        0.88006    0.12184    0.16937    1.000
    H799     H        0.87049    0.17562    0.21450    1.000
    H800     H        0.82706    0.22731    0.19552    1.000
    H801     H        0.77068    0.14309    0.13093    1.000
    H802     H        0.76674    0.21722    0.11321    1.000
    H803     H        0.75917    0.23738    0.16508    1.000
    C950     C        0.28200    0.61100    0.55000    1.000
    C951     C        0.27300    0.67200    0.53200    1.000
    C952     C        0.24900    0.56600    0.69000    1.000
    C953     C        0.21500    0.55700    0.70400    1.000
    C954     C        0.19000    0.54400    0.67800    1.000
    C955     C        0.19800    0.54600    0.63900    1.000
    C956     C        0.23100    0.55500    0.62400    1.000
    C957     C        0.35200    0.63800    0.67100    1.000
    C958     C        0.35000    0.67000    0.69000    1.000
    C959     C        0.32400    0.69800    0.68200    1.000
    C960     C        0.29700    0.68900    0.65900    1.000
    C961     C        0.29600    0.65400    0.64800    1.000
    C962     C        0.27300    0.71600    0.64500    1.000
    N293     N        0.29700    0.60200    0.57400    1.000
    N294     N        0.28100    0.69500    0.54900    1.000
    N295     N        0.26100    0.55900    0.65000    1.000
    N296     N        0.32600    0.62600    0.65600    1.000
    H804     H        0.27117    0.58005    0.70904    1.000
    H805     H        0.20905    0.56056    0.73568    1.000
    H806     H        0.16183    0.53113    0.68761    1.000
    H807     H        0.17477    0.53950    0.61733    1.000
    H808     H        0.23369    0.55899    0.59193    1.000
    H809     H        0.38006    0.62184    0.66937    1.000
    H810     H        0.37049    0.67562    0.71450    1.000
    H811     H        0.32706    0.72731    0.69552    1.000
    H812     H        0.27068    0.64309    0.63093    1.000
    H813     H        0.26674    0.71722    0.61321    1.000
    H814     H        0.25917    0.73738    0.66508    1.000
    C963     C        0.71800    0.88900    0.55000    1.000
    C964     C        0.72700    0.82800    0.53200    1.000
    C965     C        0.75100    0.93400    0.69000    1.000
    C966     C        0.78500    0.94300    0.70400    1.000
    C967     C        0.81000    0.95600    0.67800    1.000
    C968     C        0.80200    0.95400    0.63900    1.000
    C969     C        0.76900    0.94500    0.62400    1.000
    C970     C        0.64800    0.86200    0.67100    1.000
    C971     C        0.65000    0.83000    0.69000    1.000
    C972     C        0.67600    0.80200    0.68200    1.000
    C973     C        0.70300    0.81100    0.65900    1.000
    C974     C        0.70400    0.84600    0.64800    1.000
    C975     C        0.72700    0.78400    0.64500    1.000
    N297     N        0.70300    0.89800    0.57400    1.000
    N298     N        0.71900    0.80500    0.54900    1.000
    N299     N        0.73900    0.94100    0.65000    1.000
    N300     N        0.67400    0.87400    0.65600    1.000
    H815     H        0.72883    0.91995    0.70904    1.000
    H816     H        0.79095    0.93944    0.73568    1.000
    H817     H        0.83817    0.96887    0.68761    1.000
    H818     H        0.82523    0.96050    0.61733    1.000
    H819     H        0.76631    0.94101    0.59193    1.000
    H820     H        0.61994    0.87816    0.66937    1.000
    H821     H        0.62951    0.82438    0.71450    1.000
    H822     H        0.67294    0.77269    0.69552    1.000
    H823     H        0.72932    0.85691    0.63093    1.000
    H824     H        0.73326    0.78278    0.61321    1.000
    H825     H        0.74083    0.76262    0.66508    1.000
    C976     C        0.21800    0.38900    0.05000    1.000
    C977     C        0.22700    0.32800    0.03200    1.000
    C978     C        0.25100    0.43400    0.19000    1.000
    C979     C        0.28500    0.44300    0.20400    1.000
    C980     C        0.31000    0.45600    0.17800    1.000
    C981     C        0.30200    0.45400    0.13900    1.000
    C982     C        0.26900    0.44500    0.12400    1.000
    C983     C        0.14800    0.36200    0.17100    1.000
    C984     C        0.15000    0.33000    0.19000    1.000
    C985     C        0.17600    0.30200    0.18200    1.000
    C986     C        0.20300    0.31100    0.15900    1.000
    C987     C        0.20400    0.34600    0.14800    1.000
    C988     C        0.22700    0.28400    0.14500    1.000
    N301     N        0.20300    0.39800    0.07400    1.000
    N302     N        0.21900    0.30500    0.04900    1.000
    N303     N        0.23900    0.44100    0.15000    1.000
    N304     N        0.17400    0.37400    0.15600    1.000
    H826     H        0.22883    0.41995    0.20904    1.000
    H827     H        0.29095    0.43944    0.23568    1.000
    H828     H        0.33817    0.46887    0.18761    1.000
    H829     H        0.32523    0.46050    0.11733    1.000
    H830     H        0.26631    0.44101    0.09193    1.000
    H831     H        0.11994    0.37816    0.16937    1.000
    H832     H        0.12951    0.32438    0.21450    1.000
    H833     H        0.17294    0.27269    0.19552    1.000
    H834     H        0.22932    0.35691    0.13093    1.000
    H835     H        0.23326    0.28278    0.11321    1.000
    H836     H        0.24083    0.26262    0.16508    1.000
    C989     C        0.28200    0.38900    0.95000    1.000
    C990     C        0.27300    0.32800    0.96800    1.000
    C991     C        0.24900    0.43400    0.81000    1.000
    C992     C        0.21500    0.44300    0.79600    1.000
    C993     C        0.19000    0.45600    0.82200    1.000
    C994     C        0.19800    0.45400    0.86100    1.000
    C995     C        0.23100    0.44500    0.87600    1.000
    C996     C        0.35200    0.36200    0.82900    1.000
    C997     C        0.35000    0.33000    0.81000    1.000
    C998     C        0.32400    0.30200    0.81800    1.000
    C999     C        0.29700    0.31100    0.84100    1.000
    C1000    C        0.29600    0.34600    0.85200    1.000
    C1001    C        0.27300    0.28400    0.85500    1.000
    N305     N        0.29700    0.39800    0.92600    1.000
    N306     N        0.28100    0.30500    0.95100    1.000
    N307     N        0.26100    0.44100    0.85000    1.000
    N308     N        0.32600    0.37400    0.84400    1.000
    H837     H        0.27117    0.41995    0.79096    1.000
    H838     H        0.20905    0.43944    0.76432    1.000
    H839     H        0.16183    0.46887    0.81239    1.000
    H840     H        0.17477    0.46050    0.88267    1.000
    H841     H        0.23369    0.44101    0.90807    1.000
    H842     H        0.38006    0.37816    0.83063    1.000
    H843     H        0.37049    0.32438    0.78550    1.000
    H844     H        0.32706    0.27269    0.80448    1.000
    H845     H        0.27068    0.35691    0.86907    1.000
    H846     H        0.26674    0.28278    0.88679    1.000
    H847     H        0.25917    0.26262    0.83492    1.000
    C1002    C        0.78200    0.88900    0.45000    1.000
    C1003    C        0.77300    0.82800    0.46800    1.000
    C1004    C        0.74900    0.93400    0.31000    1.000
    C1005    C        0.71500    0.94300    0.29600    1.000
    C1006    C        0.69000    0.95600    0.32200    1.000
    C1007    C        0.69800    0.95400    0.36100    1.000
    C1008    C        0.73100    0.94500    0.37600    1.000
    C1009    C        0.85200    0.86200    0.32900    1.000
    C1010    C        0.85000    0.83000    0.31000    1.000
    C1011    C        0.82400    0.80200    0.31800    1.000
    C1012    C        0.79700    0.81100    0.34100    1.000
    C1013    C        0.79600    0.84600    0.35200    1.000
    C1014    C        0.77300    0.78400    0.35500    1.000
    N309     N        0.79700    0.89800    0.42600    1.000
    N310     N        0.78100    0.80500    0.45100    1.000
    N311     N        0.76100    0.94100    0.35000    1.000
    N312     N        0.82600    0.87400    0.34400    1.000
    H848     H        0.77117    0.91995    0.29096    1.000
    H849     H        0.70905    0.93944    0.26432    1.000
    H850     H        0.66183    0.96887    0.31239    1.000
    H851     H        0.67477    0.96050    0.38267    1.000
    H852     H        0.73369    0.94101    0.40807    1.000
    H853     H        0.88006    0.87816    0.33063    1.000
    H854     H        0.87049    0.82438    0.28550    1.000
    H855     H        0.82706    0.77269    0.30448    1.000
    H856     H        0.77068    0.85691    0.36907    1.000
    H857     H        0.76674    0.78278    0.38679    1.000
    H858     H        0.75917    0.76262    0.33492    1.000
    C1015    C        0.21800    0.61100    0.45000    1.000
    C1016    C        0.22700    0.67200    0.46800    1.000
    C1017    C        0.25100    0.56600    0.31000    1.000
    C1018    C        0.28500    0.55700    0.29600    1.000
    C1019    C        0.31000    0.54400    0.32200    1.000
    C1020    C        0.30200    0.54600    0.36100    1.000
    C1021    C        0.26900    0.55500    0.37600    1.000
    C1022    C        0.14800    0.63800    0.32900    1.000
    C1023    C        0.15000    0.67000    0.31000    1.000
    C1024    C        0.17600    0.69800    0.31800    1.000
    C1025    C        0.20300    0.68900    0.34100    1.000
    C1026    C        0.20400    0.65400    0.35200    1.000
    C1027    C        0.22700    0.71600    0.35500    1.000
    N313     N        0.20300    0.60200    0.42600    1.000
    N314     N        0.21900    0.69500    0.45100    1.000
    N315     N        0.23900    0.55900    0.35000    1.000
    N316     N        0.17400    0.62600    0.34400    1.000
    H859     H        0.22883    0.58005    0.29096    1.000
    H860     H        0.29095    0.56056    0.26432    1.000
    H861     H        0.33817    0.53113    0.31239    1.000
    H862     H        0.32523    0.53950    0.38267    1.000
    H863     H        0.26631    0.55899    0.40807    1.000
    H864     H        0.11994    0.62184    0.33063    1.000
    H865     H        0.12951    0.67562    0.28550    1.000
    H866     H        0.17294    0.72731    0.30448    1.000
    H867     H        0.22932    0.64309    0.36907    1.000
    H868     H        0.23326    0.71722    0.38679    1.000
    H869     H        0.24083    0.73738    0.33492    1.000
    C1028    C        0.71800    0.11100    0.95000    1.000
    C1029    C        0.72700    0.17200    0.96800    1.000
    C1030    C        0.75100    0.06600    0.81000    1.000
    C1031    C        0.78500    0.05700    0.79600    1.000
    C1032    C        0.81000    0.04400    0.82200    1.000
    C1033    C        0.80200    0.04600    0.86100    1.000
    C1034    C        0.76900    0.05500    0.87600    1.000
    C1035    C        0.64800    0.13800    0.82900    1.000
    C1036    C        0.65000    0.17000    0.81000    1.000
    C1037    C        0.67600    0.19800    0.81800    1.000
    C1038    C        0.70300    0.18900    0.84100    1.000
    C1039    C        0.70400    0.15400    0.85200    1.000
    C1040    C        0.72700    0.21600    0.85500    1.000
    N317     N        0.70300    0.10200    0.92600    1.000
    N318     N        0.71900    0.19500    0.95100    1.000
    N319     N        0.73900    0.05900    0.85000    1.000
    N320     N        0.67400    0.12600    0.84400    1.000
    H870     H        0.72883    0.08005    0.79096    1.000
    H871     H        0.79095    0.06056    0.76432    1.000
    H872     H        0.83817    0.03113    0.81239    1.000
    H873     H        0.82523    0.03950    0.88267    1.000
    H874     H        0.76631    0.05899    0.90807    1.000
    H875     H        0.61994    0.12184    0.83063    1.000
    H876     H        0.62951    0.17562    0.78550    1.000
    H877     H        0.67294    0.22731    0.80448    1.000
    H878     H        0.72932    0.14309    0.86907    1.000
    H879     H        0.73326    0.21722    0.88679    1.000
    H880     H        0.74083    0.23738    0.83492    1.000
    C1041    C        0.61100    0.45000    0.21800    1.000
    C1042    C        0.67200    0.46800    0.22700    1.000
    C1043    C        0.56600    0.31000    0.25100    1.000
    C1044    C        0.55700    0.29600    0.28500    1.000
    C1045    C        0.54400    0.32200    0.31000    1.000
    C1046    C        0.54600    0.36100    0.30200    1.000
    C1047    C        0.55500    0.37600    0.26900    1.000
    C1048    C        0.63800    0.32900    0.14800    1.000
    C1049    C        0.67000    0.31000    0.15000    1.000
    C1050    C        0.69800    0.31800    0.17600    1.000
    C1051    C        0.68900    0.34100    0.20300    1.000
    C1052    C        0.65400    0.35200    0.20400    1.000
    C1053    C        0.71600    0.35500    0.22700    1.000
    N321     N        0.60200    0.42600    0.20300    1.000
    N322     N        0.69500    0.45100    0.21900    1.000
    N323     N        0.55900    0.35000    0.23900    1.000
    N324     N        0.62600    0.34400    0.17400    1.000
    H881     H        0.58005    0.29096    0.22883    1.000
    H882     H        0.56056    0.26432    0.29095    1.000
    H883     H        0.53113    0.31239    0.33817    1.000
    H884     H        0.53950    0.38267    0.32523    1.000
    H885     H        0.55899    0.40807    0.26631    1.000
    H886     H        0.62184    0.33063    0.11994    1.000
    H887     H        0.67562    0.28550    0.12951    1.000
    H888     H        0.72731    0.30448    0.17294    1.000
    H889     H        0.64309    0.36907    0.22932    1.000
    H890     H        0.71722    0.38679    0.23326    1.000
    H891     H        0.73738    0.33492    0.24083    1.000
    C1054    C        0.11100    0.95000    0.71800    1.000
    C1055    C        0.17200    0.96800    0.72700    1.000
    C1056    C        0.06600    0.81000    0.75100    1.000
    C1057    C        0.05700    0.79600    0.78500    1.000
    C1058    C        0.04400    0.82200    0.81000    1.000
    C1059    C        0.04600    0.86100    0.80200    1.000
    C1060    C        0.05500    0.87600    0.76900    1.000
    C1061    C        0.13800    0.82900    0.64800    1.000
    C1062    C        0.17000    0.81000    0.65000    1.000
    C1063    C        0.19800    0.81800    0.67600    1.000
    C1064    C        0.18900    0.84100    0.70300    1.000
    C1065    C        0.15400    0.85200    0.70400    1.000
    C1066    C        0.21600    0.85500    0.72700    1.000
    N325     N        0.10200    0.92600    0.70300    1.000
    N326     N        0.19500    0.95100    0.71900    1.000
    N327     N        0.05900    0.85000    0.73900    1.000
    N328     N        0.12600    0.84400    0.67400    1.000
    H892     H        0.08005    0.79096    0.72883    1.000
    H893     H        0.06056    0.76432    0.79095    1.000
    H894     H        0.03113    0.81239    0.83817    1.000
    H895     H        0.03950    0.88267    0.82523    1.000
    H896     H        0.05899    0.90807    0.76631    1.000
    H897     H        0.12184    0.83063    0.61994    1.000
    H898     H        0.17562    0.78550    0.62951    1.000
    H899     H        0.22731    0.80448    0.67294    1.000
    H900     H        0.14309    0.86907    0.72932    1.000
    H901     H        0.21722    0.88679    0.73326    1.000
    H902     H        0.23738    0.83492    0.74083    1.000
    C1067    C        0.38900    0.95000    0.28200    1.000
    C1068    C        0.32800    0.96800    0.27300    1.000
    C1069    C        0.43400    0.81000    0.24900    1.000
    C1070    C        0.44300    0.79600    0.21500    1.000
    C1071    C        0.45600    0.82200    0.19000    1.000
    C1072    C        0.45400    0.86100    0.19800    1.000
    C1073    C        0.44500    0.87600    0.23100    1.000
    C1074    C        0.36200    0.82900    0.35200    1.000
    C1075    C        0.33000    0.81000    0.35000    1.000
    C1076    C        0.30200    0.81800    0.32400    1.000
    C1077    C        0.31100    0.84100    0.29700    1.000
    C1078    C        0.34600    0.85200    0.29600    1.000
    C1079    C        0.28400    0.85500    0.27300    1.000
    N329     N        0.39800    0.92600    0.29700    1.000
    N330     N        0.30500    0.95100    0.28100    1.000
    N331     N        0.44100    0.85000    0.26100    1.000
    N332     N        0.37400    0.84400    0.32600    1.000
    H903     H        0.41995    0.79096    0.27117    1.000
    H904     H        0.43944    0.76432    0.20905    1.000
    H905     H        0.46887    0.81239    0.16183    1.000
    H906     H        0.46050    0.88267    0.17477    1.000
    H907     H        0.44101    0.90807    0.23369    1.000
    H908     H        0.37816    0.83063    0.38006    1.000
    H909     H        0.32438    0.78550    0.37049    1.000
    H910     H        0.27269    0.80448    0.32706    1.000
    H911     H        0.35691    0.86907    0.27068    1.000
    H912     H        0.28278    0.88679    0.26674    1.000
    H913     H        0.26262    0.83492    0.25917    1.000
    C1080    C        0.88900    0.45000    0.78200    1.000
    C1081    C        0.82800    0.46800    0.77300    1.000
    C1082    C        0.93400    0.31000    0.74900    1.000
    C1083    C        0.94300    0.29600    0.71500    1.000
    C1084    C        0.95600    0.32200    0.69000    1.000
    C1085    C        0.95400    0.36100    0.69800    1.000
    C1086    C        0.94500    0.37600    0.73100    1.000
    C1087    C        0.86200    0.32900    0.85200    1.000
    C1088    C        0.83000    0.31000    0.85000    1.000
    C1089    C        0.80200    0.31800    0.82400    1.000
    C1090    C        0.81100    0.34100    0.79700    1.000
    C1091    C        0.84600    0.35200    0.79600    1.000
    C1092    C        0.78400    0.35500    0.77300    1.000
    N333     N        0.89800    0.42600    0.79700    1.000
    N334     N        0.80500    0.45100    0.78100    1.000
    N335     N        0.94100    0.35000    0.76100    1.000
    N336     N        0.87400    0.34400    0.82600    1.000
    H914     H        0.91995    0.29096    0.77117    1.000
    H915     H        0.93944    0.26432    0.70905    1.000
    H916     H        0.96887    0.31239    0.66183    1.000
    H917     H        0.96050    0.38267    0.67477    1.000
    H918     H        0.94101    0.40807    0.73369    1.000
    H919     H        0.87816    0.33063    0.88006    1.000
    H920     H        0.82438    0.28550    0.87049    1.000
    H921     H        0.77269    0.30448    0.82706    1.000
    H922     H        0.85691    0.36907    0.77068    1.000
    H923     H        0.78278    0.38679    0.76674    1.000
    H924     H        0.76262    0.33492    0.75917    1.000
    C1093    C        0.88900    0.55000    0.71800    1.000
    C1094    C        0.82800    0.53200    0.72700    1.000
    C1095    C        0.93400    0.69000    0.75100    1.000
    C1096    C        0.94300    0.70400    0.78500    1.000
    C1097    C        0.95600    0.67800    0.81000    1.000
    C1098    C        0.95400    0.63900    0.80200    1.000
    C1099    C        0.94500    0.62400    0.76900    1.000
    C1100    C        0.86200    0.67100    0.64800    1.000
    C1101    C        0.83000    0.69000    0.65000    1.000
    C1102    C        0.80200    0.68200    0.67600    1.000
    C1103    C        0.81100    0.65900    0.70300    1.000
    C1104    C        0.84600    0.64800    0.70400    1.000
    C1105    C        0.78400    0.64500    0.72700    1.000
    N337     N        0.89800    0.57400    0.70300    1.000
    N338     N        0.80500    0.54900    0.71900    1.000
    N339     N        0.94100    0.65000    0.73900    1.000
    N340     N        0.87400    0.65600    0.67400    1.000
    H925     H        0.91995    0.70904    0.72883    1.000
    H926     H        0.93944    0.73568    0.79095    1.000
    H927     H        0.96887    0.68761    0.83817    1.000
    H928     H        0.96050    0.61733    0.82523    1.000
    H929     H        0.94101    0.59193    0.76631    1.000
    H930     H        0.87816    0.66937    0.61994    1.000
    H931     H        0.82438    0.71450    0.62951    1.000
    H932     H        0.77269    0.69552    0.67294    1.000
    H933     H        0.85691    0.63093    0.72932    1.000
    H934     H        0.78278    0.61321    0.73326    1.000
    H935     H        0.76262    0.66508    0.74083    1.000
    C1106    C        0.38900    0.05000    0.21800    1.000
    C1107    C        0.32800    0.03200    0.22700    1.000
    C1108    C        0.43400    0.19000    0.25100    1.000
    C1109    C        0.44300    0.20400    0.28500    1.000
    C1110    C        0.45600    0.17800    0.31000    1.000
    C1111    C        0.45400    0.13900    0.30200    1.000
    C1112    C        0.44500    0.12400    0.26900    1.000
    C1113    C        0.36200    0.17100    0.14800    1.000
    C1114    C        0.33000    0.19000    0.15000    1.000
    C1115    C        0.30200    0.18200    0.17600    1.000
    C1116    C        0.31100    0.15900    0.20300    1.000
    C1117    C        0.34600    0.14800    0.20400    1.000
    C1118    C        0.28400    0.14500    0.22700    1.000
    N341     N        0.39800    0.07400    0.20300    1.000
    N342     N        0.30500    0.04900    0.21900    1.000
    N343     N        0.44100    0.15000    0.23900    1.000
    N344     N        0.37400    0.15600    0.17400    1.000
    H936     H        0.41995    0.20904    0.22883    1.000
    H937     H        0.43944    0.23568    0.29095    1.000
    H938     H        0.46887    0.18761    0.33817    1.000
    H939     H        0.46050    0.11733    0.32523    1.000
    H940     H        0.44101    0.09193    0.26631    1.000
    H941     H        0.37816    0.16937    0.11994    1.000
    H942     H        0.32438    0.21450    0.12951    1.000
    H943     H        0.27269    0.19552    0.17294    1.000
    H944     H        0.35691    0.13093    0.22932    1.000
    H945     H        0.28278    0.11321    0.23326    1.000
    H946     H        0.26262    0.16508    0.24083    1.000
    C1119    C        0.11100    0.05000    0.78200    1.000
    C1120    C        0.17200    0.03200    0.77300    1.000
    C1121    C        0.06600    0.19000    0.74900    1.000
    C1122    C        0.05700    0.20400    0.71500    1.000
    C1123    C        0.04400    0.17800    0.69000    1.000
    C1124    C        0.04600    0.13900    0.69800    1.000
    C1125    C        0.05500    0.12400    0.73100    1.000
    C1126    C        0.13800    0.17100    0.85200    1.000
    C1127    C        0.17000    0.19000    0.85000    1.000
    C1128    C        0.19800    0.18200    0.82400    1.000
    C1129    C        0.18900    0.15900    0.79700    1.000
    C1130    C        0.15400    0.14800    0.79600    1.000
    C1131    C        0.21600    0.14500    0.77300    1.000
    N345     N        0.10200    0.07400    0.79700    1.000
    N346     N        0.19500    0.04900    0.78100    1.000
    N347     N        0.05900    0.15000    0.76100    1.000
    N348     N        0.12600    0.15600    0.82600    1.000
    H947     H        0.08005    0.20904    0.77117    1.000
    H948     H        0.06056    0.23568    0.70905    1.000
    H949     H        0.03113    0.18761    0.66183    1.000
    H950     H        0.03950    0.11733    0.67477    1.000
    H951     H        0.05899    0.09193    0.73369    1.000
    H952     H        0.12184    0.16937    0.88006    1.000
    H953     H        0.17562    0.21450    0.87049    1.000
    H954     H        0.22731    0.19552    0.82706    1.000
    H955     H        0.14309    0.13093    0.77068    1.000
    H956     H        0.21722    0.11321    0.76674    1.000
    H957     H        0.23738    0.16508    0.75917    1.000
    C1132    C        0.61100    0.55000    0.28200    1.000
    C1133    C        0.67200    0.53200    0.27300    1.000
    C1134    C        0.56600    0.69000    0.24900    1.000
    C1135    C        0.55700    0.70400    0.21500    1.000
    C1136    C        0.54400    0.67800    0.19000    1.000
    C1137    C        0.54600    0.63900    0.19800    1.000
    C1138    C        0.55500    0.62400    0.23100    1.000
    C1139    C        0.63800    0.67100    0.35200    1.000
    C1140    C        0.67000    0.69000    0.35000    1.000
    C1141    C        0.69800    0.68200    0.32400    1.000
    C1142    C        0.68900    0.65900    0.29700    1.000
    C1143    C        0.65400    0.64800    0.29600    1.000
    C1144    C        0.71600    0.64500    0.27300    1.000
    N349     N        0.60200    0.57400    0.29700    1.000
    N350     N        0.69500    0.54900    0.28100    1.000
    N351     N        0.55900    0.65000    0.26100    1.000
    N352     N        0.62600    0.65600    0.32600    1.000
    H958     H        0.58005    0.70904    0.27117    1.000
    H959     H        0.56056    0.73568    0.20905    1.000
    H960     H        0.53113    0.68761    0.16183    1.000
    H961     H        0.53950    0.61733    0.17477    1.000
    H962     H        0.55899    0.59193    0.23369    1.000
    H963     H        0.62184    0.66937    0.38006    1.000
    H964     H        0.67562    0.71450    0.37049    1.000
    H965     H        0.72731    0.69552    0.32706    1.000
    H966     H        0.64309    0.63093    0.27068    1.000
    H967     H        0.71722    0.61321    0.26674    1.000
    H968     H        0.73738    0.66508    0.25917    1.000
    C1145    C        0.95000    0.28200    0.38900    1.000
    C1146    C        0.96800    0.27300    0.32800    1.000
    C1147    C        0.81000    0.24900    0.43400    1.000
    C1148    C        0.79600    0.21500    0.44300    1.000
    C1149    C        0.82200    0.19000    0.45600    1.000
    C1150    C        0.86100    0.19800    0.45400    1.000
    C1151    C        0.87600    0.23100    0.44500    1.000
    C1152    C        0.82900    0.35200    0.36200    1.000
    C1153    C        0.81000    0.35000    0.33000    1.000
    C1154    C        0.81800    0.32400    0.30200    1.000
    C1155    C        0.84100    0.29700    0.31100    1.000
    C1156    C        0.85200    0.29600    0.34600    1.000
    C1157    C        0.85500    0.27300    0.28400    1.000
    N353     N        0.92600    0.29700    0.39800    1.000
    N354     N        0.95100    0.28100    0.30500    1.000
    N355     N        0.85000    0.26100    0.44100    1.000
    N356     N        0.84400    0.32600    0.37400    1.000
    H969     H        0.79096    0.27117    0.41995    1.000
    H970     H        0.76432    0.20905    0.43944    1.000
    H971     H        0.81239    0.16183    0.46887    1.000
    H972     H        0.88267    0.17477    0.46050    1.000
    H973     H        0.90807    0.23369    0.44101    1.000
    H974     H        0.83063    0.38006    0.37816    1.000
    H975     H        0.78550    0.37049    0.32438    1.000
    H976     H        0.80448    0.32706    0.27269    1.000
    H977     H        0.86907    0.27068    0.35691    1.000
    H978     H        0.88679    0.26674    0.28278    1.000
    H979     H        0.83492    0.25917    0.26262    1.000
    C1158    C        0.45000    0.78200    0.88900    1.000
    C1159    C        0.46800    0.77300    0.82800    1.000
    C1160    C        0.31000    0.74900    0.93400    1.000
    C1161    C        0.29600    0.71500    0.94300    1.000
    C1162    C        0.32200    0.69000    0.95600    1.000
    C1163    C        0.36100    0.69800    0.95400    1.000
    C1164    C        0.37600    0.73100    0.94500    1.000
    C1165    C        0.32900    0.85200    0.86200    1.000
    C1166    C        0.31000    0.85000    0.83000    1.000
    C1167    C        0.31800    0.82400    0.80200    1.000
    C1168    C        0.34100    0.79700    0.81100    1.000
    C1169    C        0.35200    0.79600    0.84600    1.000
    C1170    C        0.35500    0.77300    0.78400    1.000
    N357     N        0.42600    0.79700    0.89800    1.000
    N358     N        0.45100    0.78100    0.80500    1.000
    N359     N        0.35000    0.76100    0.94100    1.000
    N360     N        0.34400    0.82600    0.87400    1.000
    H980     H        0.29096    0.77117    0.91995    1.000
    H981     H        0.26432    0.70905    0.93944    1.000
    H982     H        0.31239    0.66183    0.96887    1.000
    H983     H        0.38267    0.67477    0.96050    1.000
    H984     H        0.40807    0.73369    0.94101    1.000
    H985     H        0.33063    0.88006    0.87816    1.000
    H986     H        0.28550    0.87049    0.82438    1.000
    H987     H        0.30448    0.82706    0.77269    1.000
    H988     H        0.36907    0.77068    0.85691    1.000
    H989     H        0.38679    0.76674    0.78278    1.000
    H990     H        0.33492    0.75917    0.76262    1.000
    C1171    C        0.45000    0.21800    0.61100    1.000
    C1172    C        0.46800    0.22700    0.67200    1.000
    C1173    C        0.31000    0.25100    0.56600    1.000
    C1174    C        0.29600    0.28500    0.55700    1.000
    C1175    C        0.32200    0.31000    0.54400    1.000
    C1176    C        0.36100    0.30200    0.54600    1.000
    C1177    C        0.37600    0.26900    0.55500    1.000
    C1178    C        0.32900    0.14800    0.63800    1.000
    C1179    C        0.31000    0.15000    0.67000    1.000
    C1180    C        0.31800    0.17600    0.69800    1.000
    C1181    C        0.34100    0.20300    0.68900    1.000
    C1182    C        0.35200    0.20400    0.65400    1.000
    C1183    C        0.35500    0.22700    0.71600    1.000
    N361     N        0.42600    0.20300    0.60200    1.000
    N362     N        0.45100    0.21900    0.69500    1.000
    N363     N        0.35000    0.23900    0.55900    1.000
    N364     N        0.34400    0.17400    0.62600    1.000
    H991     H        0.29096    0.22883    0.58005    1.000
    H992     H        0.26432    0.29095    0.56056    1.000
    H993     H        0.31239    0.33817    0.53113    1.000
    H994     H        0.38267    0.32523    0.53950    1.000
    H995     H        0.40807    0.26631    0.55899    1.000
    H996     H        0.33063    0.11994    0.62184    1.000
    H997     H        0.28550    0.12951    0.67562    1.000
    H998     H        0.30448    0.17294    0.72731    1.000
    H999     H        0.36907    0.22932    0.64309    1.000
    H1000    H        0.38679    0.23326    0.71722    1.000
    H1001    H        0.33492    0.24083    0.73738    1.000
    C1184    C        0.95000    0.71800    0.11100    1.000
    C1185    C        0.96800    0.72700    0.17200    1.000
    C1186    C        0.81000    0.75100    0.06600    1.000
    C1187    C        0.79600    0.78500    0.05700    1.000
    C1188    C        0.82200    0.81000    0.04400    1.000
    C1189    C        0.86100    0.80200    0.04600    1.000
    C1190    C        0.87600    0.76900    0.05500    1.000
    C1191    C        0.82900    0.64800    0.13800    1.000
    C1192    C        0.81000    0.65000    0.17000    1.000
    C1193    C        0.81800    0.67600    0.19800    1.000
    C1194    C        0.84100    0.70300    0.18900    1.000
    C1195    C        0.85200    0.70400    0.15400    1.000
    C1196    C        0.85500    0.72700    0.21600    1.000
    N365     N        0.92600    0.70300    0.10200    1.000
    N366     N        0.95100    0.71900    0.19500    1.000
    N367     N        0.85000    0.73900    0.05900    1.000
    N368     N        0.84400    0.67400    0.12600    1.000
    H1002    H        0.79096    0.72883    0.08005    1.000
    H1003    H        0.76432    0.79095    0.06056    1.000
    H1004    H        0.81239    0.83817    0.03113    1.000
    H1005    H        0.88267    0.82523    0.03950    1.000
    H1006    H        0.90807    0.76631    0.05899    1.000
    H1007    H        0.83063    0.61994    0.12184    1.000
    H1008    H        0.78550    0.62951    0.17562    1.000
    H1009    H        0.80448    0.67294    0.22731    1.000
    H1010    H        0.86907    0.72932    0.14309    1.000
    H1011    H        0.88679    0.73326    0.21722    1.000
    H1012    H        0.83492    0.74083    0.23738    1.000
    C1197    C        0.05000    0.78200    0.11100    1.000
    C1198    C        0.03200    0.77300    0.17200    1.000
    C1199    C        0.19000    0.74900    0.06600    1.000
    C1200    C        0.20400    0.71500    0.05700    1.000
    C1201    C        0.17800    0.69000    0.04400    1.000
    C1202    C        0.13900    0.69800    0.04600    1.000
    C1203    C        0.12400    0.73100    0.05500    1.000
    C1204    C        0.17100    0.85200    0.13800    1.000
    C1205    C        0.19000    0.85000    0.17000    1.000
    C1206    C        0.18200    0.82400    0.19800    1.000
    C1207    C        0.15900    0.79700    0.18900    1.000
    C1208    C        0.14800    0.79600    0.15400    1.000
    C1209    C        0.14500    0.77300    0.21600    1.000
    N369     N        0.07400    0.79700    0.10200    1.000
    N370     N        0.04900    0.78100    0.19500    1.000
    N371     N        0.15000    0.76100    0.05900    1.000
    N372     N        0.15600    0.82600    0.12600    1.000
    H1013    H        0.20904    0.77117    0.08005    1.000
    H1014    H        0.23568    0.70905    0.06056    1.000
    H1015    H        0.18761    0.66183    0.03113    1.000
    H1016    H        0.11733    0.67477    0.03950    1.000
    H1017    H        0.09193    0.73369    0.05899    1.000
    H1018    H        0.16937    0.88006    0.12184    1.000
    H1019    H        0.21450    0.87049    0.17562    1.000
    H1020    H        0.19552    0.82706    0.22731    1.000
    H1021    H        0.13093    0.77068    0.14309    1.000
    H1022    H        0.11321    0.76674    0.21722    1.000
    H1023    H        0.16508    0.75917    0.23738    1.000
    C1210    C        0.55000    0.28200    0.61100    1.000
    C1211    C        0.53200    0.27300    0.67200    1.000
    C1212    C        0.69000    0.24900    0.56600    1.000
    C1213    C        0.70400    0.21500    0.55700    1.000
    C1214    C        0.67800    0.19000    0.54400    1.000
    C1215    C        0.63900    0.19800    0.54600    1.000
    C1216    C        0.62400    0.23100    0.55500    1.000
    C1217    C        0.67100    0.35200    0.63800    1.000
    C1218    C        0.69000    0.35000    0.67000    1.000
    C1219    C        0.68200    0.32400    0.69800    1.000
    C1220    C        0.65900    0.29700    0.68900    1.000
    C1221    C        0.64800    0.29600    0.65400    1.000
    C1222    C        0.64500    0.27300    0.71600    1.000
    N373     N        0.57400    0.29700    0.60200    1.000
    N374     N        0.54900    0.28100    0.69500    1.000
    N375     N        0.65000    0.26100    0.55900    1.000
    N376     N        0.65600    0.32600    0.62600    1.000
    H1024    H        0.70904    0.27117    0.58005    1.000
    H1025    H        0.73568    0.20905    0.56056    1.000
    H1026    H        0.68761    0.16183    0.53113    1.000
    H1027    H        0.61733    0.17477    0.53950    1.000
    H1028    H        0.59193    0.23369    0.55899    1.000
    H1029    H        0.66937    0.38006    0.62184    1.000
    H1030    H        0.71450    0.37049    0.67562    1.000
    H1031    H        0.69552    0.32706    0.72731    1.000
    H1032    H        0.63093    0.27068    0.64309    1.000
    H1033    H        0.61321    0.26674    0.71722    1.000
    H1034    H        0.66508    0.25917    0.73738    1.000
    C1223    C        0.55000    0.71800    0.88900    1.000
    C1224    C        0.53200    0.72700    0.82800    1.000
    C1225    C        0.69000    0.75100    0.93400    1.000
    C1226    C        0.70400    0.78500    0.94300    1.000
    C1227    C        0.67800    0.81000    0.95600    1.000
    C1228    C        0.63900    0.80200    0.95400    1.000
    C1229    C        0.62400    0.76900    0.94500    1.000
    C1230    C        0.67100    0.64800    0.86200    1.000
    C1231    C        0.69000    0.65000    0.83000    1.000
    C1232    C        0.68200    0.67600    0.80200    1.000
    C1233    C        0.65900    0.70300    0.81100    1.000
    C1234    C        0.64800    0.70400    0.84600    1.000
    C1235    C        0.64500    0.72700    0.78400    1.000
    N377     N        0.57400    0.70300    0.89800    1.000
    N378     N        0.54900    0.71900    0.80500    1.000
    N379     N        0.65000    0.73900    0.94100    1.000
    N380     N        0.65600    0.67400    0.87400    1.000
    H1035    H        0.70904    0.72883    0.91995    1.000
    H1036    H        0.73568    0.79095    0.93944    1.000
    H1037    H        0.68761    0.83817    0.96887    1.000
    H1038    H        0.61733    0.82523    0.96050    1.000
    H1039    H        0.59193    0.76631    0.94101    1.000
    H1040    H        0.66937    0.61994    0.87816    1.000
    H1041    H        0.71450    0.62951    0.82438    1.000
    H1042    H        0.69552    0.67294    0.77269    1.000
    H1043    H        0.63093    0.72932    0.85691    1.000
    H1044    H        0.61321    0.73326    0.78278    1.000
    H1045    H        0.66508    0.74083    0.76262    1.000
    C1236    C        0.05000    0.21800    0.38900    1.000
    C1237    C        0.03200    0.22700    0.32800    1.000
    C1238    C        0.19000    0.25100    0.43400    1.000
    C1239    C        0.20400    0.28500    0.44300    1.000
    C1240    C        0.17800    0.31000    0.45600    1.000
    C1241    C        0.13900    0.30200    0.45400    1.000
    C1242    C        0.12400    0.26900    0.44500    1.000
    C1243    C        0.17100    0.14800    0.36200    1.000
    C1244    C        0.19000    0.15000    0.33000    1.000
    C1245    C        0.18200    0.17600    0.30200    1.000
    C1246    C        0.15900    0.20300    0.31100    1.000
    C1247    C        0.14800    0.20400    0.34600    1.000
    C1248    C        0.14500    0.22700    0.28400    1.000
    N381     N        0.07400    0.20300    0.39800    1.000
    N382     N        0.04900    0.21900    0.30500    1.000
    N383     N        0.15000    0.23900    0.44100    1.000
    N384     N        0.15600    0.17400    0.37400    1.000
    H1046    H        0.20904    0.22883    0.41995    1.000
    H1047    H        0.23568    0.29095    0.43944    1.000
    H1048    H        0.18761    0.33817    0.46887    1.000
    H1049    H        0.11733    0.32523    0.46050    1.000
    H1050    H        0.09193    0.26631    0.44101    1.000
    H1051    H        0.16937    0.11994    0.37816    1.000
    H1052    H        0.21450    0.12951    0.32438    1.000
    H1053    H        0.19552    0.17294    0.27269    1.000
    H1054    H        0.13093    0.22932    0.35691    1.000
    H1055    H        0.11321    0.23326    0.28278    1.000
    H1056    H        0.16508    0.24083    0.26262    1.000
    Nb1      Nb       0.62500    0.50000    0.25000    1.000
    Nb2      Nb       0.87500    0.50000    0.75000    1.000
    Nb3      Nb       0.37500    0.00000    0.25000    1.000
    Nb4      Nb       0.12500    0.00000    0.75000    1.000
    Nb5      Nb       0.25000    0.62500    0.50000    1.000
    Nb6      Nb       0.75000    0.87500    0.50000    1.000
    Nb7      Nb       0.25000    0.37500    0.00000    1.000
    Nb8      Nb       0.75000    0.12500    0.00000    1.000
    Nb9      Nb       0.50000    0.25000    0.62500    1.000
    Nb10     Nb       0.50000    0.75000    0.87500    1.000
    Nb11     Nb       0.00000    0.25000    0.37500    1.000
    Nb12     Nb       0.00000    0.75000    0.12500    1.000
    Nb13     Nb       0.25000    0.87500    0.00000    1.000
    Nb14     Nb       0.75000    0.37500    0.50000    1.000
    Nb15     Nb       0.25000    0.12500    0.50000    1.000
    Nb16     Nb       0.75000    0.62500    0.00000    1.000
    Nb17     Nb       0.37500    0.50000    0.75000    1.000
    Nb18     Nb       0.62500    0.00000    0.75000    1.000
    Nb19     Nb       0.12500    0.50000    0.25000    1.000
    Nb20     Nb       0.87500    0.00000    0.25000    1.000
    Nb21     Nb       0.00000    0.75000    0.62500    1.000
    Nb22     Nb       0.50000    0.75000    0.37500    1.000
    Nb23     Nb       0.00000    0.25000    0.87500    1.000
    Nb24     Nb       0.50000    0.25000    0.12500    1.000
    Fe1      Fe       0.68200    0.43200    0.37500    1.000
    Fe2      Fe       0.81800    0.56800    0.87500    1.000
    Fe3      Fe       0.31800    0.93200    0.12500    1.000
    Fe4      Fe       0.18200    0.06800    0.62500    1.000
    Fe5      Fe       0.37500    0.68200    0.43200    1.000
    Fe6      Fe       0.87500    0.81800    0.56800    1.000
    Fe7      Fe       0.12500    0.31800    0.93200    1.000
    Fe8      Fe       0.62500    0.18200    0.06800    1.000
    Fe9      Fe       0.43200    0.37500    0.68200    1.000
    Fe10     Fe       0.56800    0.87500    0.81800    1.000
    Fe11     Fe       0.93200    0.12500    0.31800    1.000
    Fe12     Fe       0.06800    0.62500    0.18200    1.000
    Fe13     Fe       0.18200    0.93200    0.87500    1.000
    Fe14     Fe       0.31800    0.06800    0.37500    1.000
    Fe15     Fe       0.68200    0.56800    0.12500    1.000
    Fe16     Fe       0.81800    0.43200    0.62500    1.000
    Fe17     Fe       0.43200    0.62500    0.81800    1.000
    Fe18     Fe       0.56800    0.12500    0.68200    1.000
    Fe19     Fe       0.06800    0.37500    0.31800    1.000
    Fe20     Fe       0.93200    0.87500    0.18200    1.000
    Fe21     Fe       0.12500    0.68200    0.56800    1.000
    Fe22     Fe       0.62500    0.81800    0.43200    1.000
    Fe23     Fe       0.87500    0.18200    0.93200    1.000
    Fe24     Fe       0.37500    0.31800    0.06800    1.000
    Fe25     Fe       0.31800    0.56800    0.62500    1.000
    Fe26     Fe       0.18200    0.43200    0.12500    1.000
    Fe27     Fe       0.68200    0.06800    0.87500    1.000
    Fe28     Fe       0.81800    0.93200    0.37500    1.000
    Fe29     Fe       0.62500    0.31800    0.56800    1.000
    Fe30     Fe       0.12500    0.18200    0.43200    1.000
    Fe31     Fe       0.87500    0.68200    0.06800    1.000
    Fe32     Fe       0.37500    0.81800    0.93200    1.000
    Fe33     Fe       0.56800    0.62500    0.31800    1.000
    Fe34     Fe       0.43200    0.12500    0.18200    1.000
    Fe35     Fe       0.06800    0.87500    0.68200    1.000
    Fe36     Fe       0.93200    0.37500    0.81800    1.000
    Fe37     Fe       0.81800    0.06800    0.12500    1.000
    Fe38     Fe       0.68200    0.93200    0.62500    1.000
    Fe39     Fe       0.31800    0.43200    0.87500    1.000
    Fe40     Fe       0.18200    0.56800    0.37500    1.000
    Fe41     Fe       0.56800    0.37500    0.18200    1.000
    Fe42     Fe       0.43200    0.87500    0.31800    1.000
    Fe43     Fe       0.93200    0.62500    0.68200    1.000
    Fe44     Fe       0.06800    0.12500    0.81800    1.000
    Fe45     Fe       0.87500    0.31800    0.43200    1.000
    Fe46     Fe       0.37500    0.18200    0.56800    1.000
    Fe47     Fe       0.12500    0.81800    0.06800    1.000
    Fe48     Fe       0.62500    0.68200    0.93200    1.000
