# CIF file generated by openbabel 3.1.0, see https://openbabel.org
data_I
_chemical_name_common 'image0'
_cell_length_a 37.9569
_cell_length_b 37.9569
_cell_length_c 37.9569
_cell_angle_alpha 90
_cell_angle_beta 90
_cell_angle_gamma 90
_space_group_name_H-M_alt 'P 1'
_space_group_name_Hall 'P 1'
loop_
    _symmetry_equiv_pos_as_xyz
    x,y,z
loop_
    _atom_site_label
    _atom_site_type_symbol
    _atom_site_fract_x
    _atom_site_fract_y
    _atom_site_fract_z
    _atom_site_occupancy
    Gd1      Gd       0.24384    0.91137    0.25577    1.000
    O1       O        0.24260    0.88280    0.20110    1.000
    O2       O        0.25520    0.93910    0.20170    1.000
    O3       O        0.29960    0.88340    0.25920    1.000
    O4       O        0.29970    0.94010    0.26640    1.000
    O5       O        0.41210    0.81860    0.26130    1.000
    O6       O        0.46210    0.84240    0.27700    1.000
    O7       O        0.25420    0.81860    0.08690    1.000
    O8       O        0.29950    0.83500    0.05770    1.000
    C1       C        0.25240    0.91120    0.18310    1.000
    C2       C        0.26150    0.90940    0.14440    1.000
    C3       C        0.28080    0.93910    0.13360    1.000
    H1       H        0.28360    0.95920    0.14830    1.000
    C4       C        0.29560    0.93750    0.09980    1.000
    C5       C        0.29310    0.90600    0.08090    1.000
    H2       H        0.30540    0.90460    0.05910    1.000
    C6       C        0.27410    0.87620    0.09160    1.000
    C7       C        0.25910    0.87830    0.12510    1.000
    H3       H        0.24710    0.85850    0.13470    1.000
    C8       C        0.31480    0.96940    0.08580    1.000
    C9       C        0.34560    0.96840    0.06580    1.000
    H4       H        0.35840    0.94720    0.06260    1.000
    C10      C        0.31530    0.91170    0.26720    1.000
    C11      C        0.35400    0.90790    0.27270    1.000
    C12      C        0.37330    0.87710    0.26810    1.000
    H5       H        0.36230    0.85710    0.25780    1.000
    C13      C        0.40850    0.87510    0.27820    1.000
    C14      C        0.42350    0.90490    0.29350    1.000
    H6       H        0.44750    0.90400    0.30080    1.000
    C15      C        0.40490    0.93610    0.29870    1.000
    C16      C        0.36890    0.93760    0.29200    1.000
    H7       H        0.35530    0.96030    0.29640    1.000
    C17      C        0.42100    0.97080    0.31170    1.000
    C18      C        0.45490    0.96990    0.32550    1.000
    H8       H        0.46980    0.95010    0.32260    1.000
    C19      C        0.43060    0.84250    0.27180    1.000
    C20      C        0.27570    0.84050    0.07790    1.000
    O9       O        0.23110    0.97190    0.26790    1.000
    Gd2      Gd       0.74384    0.41137    0.75577    1.000
    O10      O        0.74260    0.38280    0.70110    1.000
    O11      O        0.75520    0.43910    0.70170    1.000
    O12      O        0.79960    0.38340    0.75920    1.000
    O13      O        0.79970    0.44010    0.76640    1.000
    O14      O        0.91210    0.31860    0.76130    1.000
    O15      O        0.96210    0.34240    0.77700    1.000
    O16      O        0.75420    0.31860    0.58690    1.000
    O17      O        0.79950    0.33500    0.55770    1.000
    C21      C        0.75240    0.41120    0.68310    1.000
    C22      C        0.76150    0.40940    0.64440    1.000
    C23      C        0.78080    0.43910    0.63360    1.000
    H9       H        0.78360    0.45920    0.64830    1.000
    C24      C        0.79560    0.43750    0.59980    1.000
    C25      C        0.79310    0.40600    0.58090    1.000
    H10      H        0.80540    0.40460    0.55910    1.000
    C26      C        0.77410    0.37620    0.59160    1.000
    C27      C        0.75910    0.37830    0.62510    1.000
    H11      H        0.74710    0.35850    0.63470    1.000
    C28      C        0.81480    0.46940    0.58580    1.000
    C29      C        0.84560    0.46840    0.56580    1.000
    H12      H        0.85840    0.44720    0.56260    1.000
    C30      C        0.81530    0.41170    0.76720    1.000
    C31      C        0.85400    0.40790    0.77270    1.000
    C32      C        0.87330    0.37710    0.76810    1.000
    H13      H        0.86230    0.35710    0.75780    1.000
    C33      C        0.90850    0.37510    0.77820    1.000
    C34      C        0.92350    0.40490    0.79350    1.000
    H14      H        0.94750    0.40400    0.80080    1.000
    C35      C        0.90490    0.43610    0.79870    1.000
    C36      C        0.86890    0.43760    0.79200    1.000
    H15      H        0.85530    0.46030    0.79640    1.000
    C37      C        0.92100    0.47080    0.81170    1.000
    C38      C        0.95490    0.46990    0.82550    1.000
    H16      H        0.96980    0.45010    0.82260    1.000
    C39      C        0.93060    0.34250    0.77180    1.000
    C40      C        0.77570    0.34050    0.57790    1.000
    O18      O        0.73110    0.47190    0.76790    1.000
    Gd3      Gd       0.75616    0.08863    0.25577    1.000
    O19      O        0.75740    0.11720    0.20110    1.000
    O20      O        0.74480    0.06090    0.20170    1.000
    O21      O        0.70040    0.11660    0.25920    1.000
    O22      O        0.70030    0.05990    0.26640    1.000
    O23      O        0.58790    0.18140    0.26130    1.000
    O24      O        0.53790    0.15760    0.27700    1.000
    O25      O        0.74580    0.18140    0.08690    1.000
    O26      O        0.70050    0.16500    0.05770    1.000
    C41      C        0.74760    0.08880    0.18310    1.000
    C42      C        0.73850    0.09060    0.14440    1.000
    C43      C        0.71920    0.06090    0.13360    1.000
    H17      H        0.71640    0.04080    0.14830    1.000
    C44      C        0.70440    0.06250    0.09980    1.000
    C45      C        0.70690    0.09400    0.08090    1.000
    H18      H        0.69460    0.09540    0.05910    1.000
    C46      C        0.72590    0.12380    0.09160    1.000
    C47      C        0.74090    0.12170    0.12510    1.000
    H19      H        0.75290    0.14150    0.13470    1.000
    C48      C        0.68520    0.03060    0.08580    1.000
    C49      C        0.65440    0.03160    0.06580    1.000
    H20      H        0.64160    0.05280    0.06260    1.000
    C50      C        0.68470    0.08830    0.26720    1.000
    C51      C        0.64600    0.09210    0.27270    1.000
    C52      C        0.62670    0.12290    0.26810    1.000
    H21      H        0.63770    0.14290    0.25780    1.000
    C53      C        0.59150    0.12490    0.27820    1.000
    C54      C        0.57650    0.09510    0.29350    1.000
    H22      H        0.55250    0.09600    0.30080    1.000
    C55      C        0.59510    0.06390    0.29870    1.000
    C56      C        0.63110    0.06240    0.29200    1.000
    H23      H        0.64470    0.03970    0.29640    1.000
    C57      C        0.57900    0.02920    0.31170    1.000
    C58      C        0.54510    0.03010    0.32550    1.000
    H24      H        0.53020    0.04990    0.32260    1.000
    C59      C        0.56940    0.15750    0.27180    1.000
    C60      C        0.72430    0.15950    0.07790    1.000
    O27      O        0.76890    0.02810    0.26790    1.000
    Gd4      Gd       0.25616    0.58863    0.75577    1.000
    O28      O        0.25740    0.61720    0.70110    1.000
    O29      O        0.24480    0.56090    0.70170    1.000
    O30      O        0.20040    0.61660    0.75920    1.000
    O31      O        0.20030    0.55990    0.76640    1.000
    O32      O        0.08790    0.68140    0.76130    1.000
    O33      O        0.03790    0.65760    0.77700    1.000
    O34      O        0.24580    0.68140    0.58690    1.000
    O35      O        0.20050    0.66500    0.55770    1.000
    C61      C        0.24760    0.58880    0.68310    1.000
    C62      C        0.23850    0.59060    0.64440    1.000
    C63      C        0.21920    0.56090    0.63360    1.000
    H25      H        0.21640    0.54080    0.64830    1.000
    C64      C        0.20440    0.56250    0.59980    1.000
    C65      C        0.20690    0.59400    0.58090    1.000
    H26      H        0.19460    0.59540    0.55910    1.000
    C66      C        0.22590    0.62380    0.59160    1.000
    C67      C        0.24090    0.62170    0.62510    1.000
    H27      H        0.25290    0.64150    0.63470    1.000
    C68      C        0.18520    0.53060    0.58580    1.000
    C69      C        0.15440    0.53160    0.56580    1.000
    H28      H        0.14160    0.55280    0.56260    1.000
    C70      C        0.18470    0.58830    0.76720    1.000
    C71      C        0.14600    0.59210    0.77270    1.000
    C72      C        0.12670    0.62290    0.76810    1.000
    H29      H        0.13770    0.64290    0.75780    1.000
    C73      C        0.09150    0.62490    0.77820    1.000
    C74      C        0.07650    0.59510    0.79350    1.000
    H30      H        0.05250    0.59600    0.80080    1.000
    C75      C        0.09510    0.56390    0.79870    1.000
    C76      C        0.13110    0.56240    0.79200    1.000
    H31      H        0.14470    0.53970    0.79640    1.000
    C77      C        0.07900    0.52920    0.81170    1.000
    C78      C        0.04510    0.53010    0.82550    1.000
    H32      H        0.03020    0.54990    0.82260    1.000
    C79      C        0.06940    0.65750    0.77180    1.000
    C80      C        0.22430    0.65950    0.57790    1.000
    O36      O        0.26890    0.52810    0.76790    1.000
    Gd5      Gd       0.75616    0.91137    0.74423    1.000
    O37      O        0.75740    0.88280    0.79890    1.000
    O38      O        0.74480    0.93910    0.79830    1.000
    O39      O        0.70040    0.88340    0.74080    1.000
    O40      O        0.70030    0.94010    0.73360    1.000
    O41      O        0.58790    0.81860    0.73870    1.000
    O42      O        0.53790    0.84240    0.72300    1.000
    O43      O        0.74580    0.81860    0.91310    1.000
    O44      O        0.70050    0.83500    0.94230    1.000
    C81      C        0.74760    0.91120    0.81690    1.000
    C82      C        0.73850    0.90940    0.85560    1.000
    C83      C        0.71920    0.93910    0.86640    1.000
    H33      H        0.71640    0.95920    0.85170    1.000
    C84      C        0.70440    0.93750    0.90020    1.000
    C85      C        0.70690    0.90600    0.91910    1.000
    H34      H        0.69460    0.90460    0.94090    1.000
    C86      C        0.72590    0.87620    0.90840    1.000
    C87      C        0.74090    0.87830    0.87490    1.000
    H35      H        0.75290    0.85850    0.86530    1.000
    C88      C        0.68520    0.96940    0.91420    1.000
    C89      C        0.65440    0.96840    0.93420    1.000
    H36      H        0.64160    0.94720    0.93740    1.000
    C90      C        0.68470    0.91170    0.73280    1.000
    C91      C        0.64600    0.90790    0.72730    1.000
    C92      C        0.62670    0.87710    0.73190    1.000
    H37      H        0.63770    0.85710    0.74220    1.000
    C93      C        0.59150    0.87510    0.72180    1.000
    C94      C        0.57650    0.90490    0.70650    1.000
    H38      H        0.55250    0.90400    0.69920    1.000
    C95      C        0.59510    0.93610    0.70130    1.000
    C96      C        0.63110    0.93760    0.70800    1.000
    H39      H        0.64470    0.96030    0.70360    1.000
    C97      C        0.57900    0.97080    0.68830    1.000
    C98      C        0.54510    0.96990    0.67450    1.000
    H40      H        0.53020    0.95010    0.67740    1.000
    C99      C        0.56940    0.84250    0.72820    1.000
    C100     C        0.72430    0.84050    0.92210    1.000
    O45      O        0.76890    0.97190    0.73210    1.000
    Gd6      Gd       0.25616    0.41137    0.24423    1.000
    O46      O        0.25740    0.38280    0.29890    1.000
    O47      O        0.24480    0.43910    0.29830    1.000
    O48      O        0.20040    0.38340    0.24080    1.000
    O49      O        0.20030    0.44010    0.23360    1.000
    O50      O        0.08790    0.31860    0.23870    1.000
    O51      O        0.03790    0.34240    0.22300    1.000
    O52      O        0.24580    0.31860    0.41310    1.000
    O53      O        0.20050    0.33500    0.44230    1.000
    C101     C        0.24760    0.41120    0.31690    1.000
    C102     C        0.23850    0.40940    0.35560    1.000
    C103     C        0.21920    0.43910    0.36640    1.000
    H41      H        0.21640    0.45920    0.35170    1.000
    C104     C        0.20440    0.43750    0.40020    1.000
    C105     C        0.20690    0.40600    0.41910    1.000
    H42      H        0.19460    0.40460    0.44090    1.000
    C106     C        0.22590    0.37620    0.40840    1.000
    C107     C        0.24090    0.37830    0.37490    1.000
    H43      H        0.25290    0.35850    0.36530    1.000
    C108     C        0.18520    0.46940    0.41420    1.000
    C109     C        0.15440    0.46840    0.43420    1.000
    H44      H        0.14160    0.44720    0.43740    1.000
    C110     C        0.18470    0.41170    0.23280    1.000
    C111     C        0.14600    0.40790    0.22730    1.000
    C112     C        0.12670    0.37710    0.23190    1.000
    H45      H        0.13770    0.35710    0.24220    1.000
    C113     C        0.09150    0.37510    0.22180    1.000
    C114     C        0.07650    0.40490    0.20650    1.000
    H46      H        0.05250    0.40400    0.19920    1.000
    C115     C        0.09510    0.43610    0.20130    1.000
    C116     C        0.13110    0.43760    0.20800    1.000
    H47      H        0.14470    0.46030    0.20360    1.000
    C117     C        0.07900    0.47080    0.18830    1.000
    C118     C        0.04510    0.46990    0.17450    1.000
    H48      H        0.03020    0.45010    0.17740    1.000
    C119     C        0.06940    0.34250    0.22820    1.000
    C120     C        0.22430    0.34050    0.42210    1.000
    O54      O        0.26890    0.47190    0.23210    1.000
    Gd7      Gd       0.24384    0.08863    0.74423    1.000
    O55      O        0.24260    0.11720    0.79890    1.000
    O56      O        0.25520    0.06090    0.79830    1.000
    O57      O        0.29960    0.11660    0.74080    1.000
    O58      O        0.29970    0.05990    0.73360    1.000
    O59      O        0.41210    0.18140    0.73870    1.000
    O60      O        0.46210    0.15760    0.72300    1.000
    O61      O        0.25420    0.18140    0.91310    1.000
    O62      O        0.29950    0.16500    0.94230    1.000
    C121     C        0.25240    0.08880    0.81690    1.000
    C122     C        0.26150    0.09060    0.85560    1.000
    C123     C        0.28080    0.06090    0.86640    1.000
    H49      H        0.28360    0.04080    0.85170    1.000
    C124     C        0.29560    0.06250    0.90020    1.000
    C125     C        0.29310    0.09400    0.91910    1.000
    H50      H        0.30540    0.09540    0.94090    1.000
    C126     C        0.27410    0.12380    0.90840    1.000
    C127     C        0.25910    0.12170    0.87490    1.000
    H51      H        0.24710    0.14150    0.86530    1.000
    C128     C        0.31480    0.03060    0.91420    1.000
    C129     C        0.34560    0.03160    0.93420    1.000
    H52      H        0.35840    0.05280    0.93740    1.000
    C130     C        0.31530    0.08830    0.73280    1.000
    C131     C        0.35400    0.09210    0.72730    1.000
    C132     C        0.37330    0.12290    0.73190    1.000
    H53      H        0.36230    0.14290    0.74220    1.000
    C133     C        0.40850    0.12490    0.72180    1.000
    C134     C        0.42350    0.09510    0.70650    1.000
    H54      H        0.44750    0.09600    0.69920    1.000
    C135     C        0.40490    0.06390    0.70130    1.000
    C136     C        0.36890    0.06240    0.70800    1.000
    H55      H        0.35530    0.03970    0.70360    1.000
    C137     C        0.42100    0.02920    0.68830    1.000
    C138     C        0.45490    0.03010    0.67450    1.000
    H56      H        0.46980    0.04990    0.67740    1.000
    C139     C        0.43060    0.15750    0.72820    1.000
    C140     C        0.27570    0.15950    0.92210    1.000
    O63      O        0.23110    0.02810    0.73210    1.000
    Gd8      Gd       0.74384    0.58863    0.24423    1.000
    O64      O        0.74260    0.61720    0.29890    1.000
    O65      O        0.75520    0.56090    0.29830    1.000
    O66      O        0.79960    0.61660    0.24080    1.000
    O67      O        0.79970    0.55990    0.23360    1.000
    O68      O        0.91210    0.68140    0.23870    1.000
    O69      O        0.96210    0.65760    0.22300    1.000
    O70      O        0.75420    0.68140    0.41310    1.000
    O71      O        0.79950    0.66500    0.44230    1.000
    C141     C        0.75240    0.58880    0.31690    1.000
    C142     C        0.76150    0.59060    0.35560    1.000
    C143     C        0.78080    0.56090    0.36640    1.000
    H57      H        0.78360    0.54080    0.35170    1.000
    C144     C        0.79560    0.56250    0.40020    1.000
    C145     C        0.79310    0.59400    0.41910    1.000
    H58      H        0.80540    0.59540    0.44090    1.000
    C146     C        0.77410    0.62380    0.40840    1.000
    C147     C        0.75910    0.62170    0.37490    1.000
    H59      H        0.74710    0.64150    0.36530    1.000
    C148     C        0.81480    0.53060    0.41420    1.000
    C149     C        0.84560    0.53160    0.43420    1.000
    H60      H        0.85840    0.55280    0.43740    1.000
    C150     C        0.81530    0.58830    0.23280    1.000
    C151     C        0.85400    0.59210    0.22730    1.000
    C152     C        0.87330    0.62290    0.23190    1.000
    H61      H        0.86230    0.64290    0.24220    1.000
    C153     C        0.90850    0.62490    0.22180    1.000
    C154     C        0.92350    0.59510    0.20650    1.000
    H62      H        0.94750    0.59600    0.19920    1.000
    C155     C        0.90490    0.56390    0.20130    1.000
    C156     C        0.86890    0.56240    0.20800    1.000
    H63      H        0.85530    0.53970    0.20360    1.000
    C157     C        0.92100    0.52920    0.18830    1.000
    C158     C        0.95490    0.53010    0.17450    1.000
    H64      H        0.96980    0.54990    0.17740    1.000
    C159     C        0.93060    0.65750    0.22820    1.000
    C160     C        0.77570    0.65950    0.42210    1.000
    O72      O        0.73110    0.52810    0.23210    1.000
    Gd9      Gd       0.25577    0.24384    0.91137    1.000
    O73      O        0.20110    0.24260    0.88280    1.000
    O74      O        0.20170    0.25520    0.93910    1.000
    O75      O        0.25920    0.29960    0.88340    1.000
    O76      O        0.26640    0.29970    0.94010    1.000
    O77      O        0.26130    0.41210    0.81860    1.000
    O78      O        0.27700    0.46210    0.84240    1.000
    O79      O        0.08690    0.25420    0.81860    1.000
    O80      O        0.05770    0.29950    0.83500    1.000
    C161     C        0.18310    0.25240    0.91120    1.000
    C162     C        0.14440    0.26150    0.90940    1.000
    C163     C        0.13360    0.28080    0.93910    1.000
    H65      H        0.14830    0.28360    0.95920    1.000
    C164     C        0.09980    0.29560    0.93750    1.000
    C165     C        0.08090    0.29310    0.90600    1.000
    H66      H        0.05910    0.30540    0.90460    1.000
    C166     C        0.09160    0.27410    0.87620    1.000
    C167     C        0.12510    0.25910    0.87830    1.000
    H67      H        0.13470    0.24710    0.85850    1.000
    C168     C        0.08580    0.31480    0.96940    1.000
    C169     C        0.06580    0.34560    0.96840    1.000
    H68      H        0.06260    0.35840    0.94720    1.000
    C170     C        0.26720    0.31530    0.91170    1.000
    C171     C        0.27270    0.35400    0.90790    1.000
    C172     C        0.26810    0.37330    0.87710    1.000
    H69      H        0.25780    0.36230    0.85710    1.000
    C173     C        0.27820    0.40850    0.87510    1.000
    C174     C        0.29350    0.42350    0.90490    1.000
    H70      H        0.30080    0.44750    0.90400    1.000
    C175     C        0.29870    0.40490    0.93610    1.000
    C176     C        0.29200    0.36890    0.93760    1.000
    H71      H        0.29640    0.35530    0.96030    1.000
    C177     C        0.31170    0.42100    0.97080    1.000
    C178     C        0.32550    0.45490    0.96990    1.000
    H72      H        0.32260    0.46980    0.95010    1.000
    C179     C        0.27180    0.43060    0.84250    1.000
    C180     C        0.07790    0.27570    0.84050    1.000
    O81      O        0.26790    0.23110    0.97190    1.000
    Gd10     Gd       0.75577    0.74384    0.41137    1.000
    O82      O        0.70110    0.74260    0.38280    1.000
    O83      O        0.70170    0.75520    0.43910    1.000
    O84      O        0.75920    0.79960    0.38340    1.000
    O85      O        0.76640    0.79970    0.44010    1.000
    O86      O        0.76130    0.91210    0.31860    1.000
    O87      O        0.77700    0.96210    0.34240    1.000
    O88      O        0.58690    0.75420    0.31860    1.000
    O89      O        0.55770    0.79950    0.33500    1.000
    C181     C        0.68310    0.75240    0.41120    1.000
    C182     C        0.64440    0.76150    0.40940    1.000
    C183     C        0.63360    0.78080    0.43910    1.000
    H73      H        0.64830    0.78360    0.45920    1.000
    C184     C        0.59980    0.79560    0.43750    1.000
    C185     C        0.58090    0.79310    0.40600    1.000
    H74      H        0.55910    0.80540    0.40460    1.000
    C186     C        0.59160    0.77410    0.37620    1.000
    C187     C        0.62510    0.75910    0.37830    1.000
    H75      H        0.63470    0.74710    0.35850    1.000
    C188     C        0.58580    0.81480    0.46940    1.000
    C189     C        0.56580    0.84560    0.46840    1.000
    H76      H        0.56260    0.85840    0.44720    1.000
    C190     C        0.76720    0.81530    0.41170    1.000
    C191     C        0.77270    0.85400    0.40790    1.000
    C192     C        0.76810    0.87330    0.37710    1.000
    H77      H        0.75780    0.86230    0.35710    1.000
    C193     C        0.77820    0.90850    0.37510    1.000
    C194     C        0.79350    0.92350    0.40490    1.000
    H78      H        0.80080    0.94750    0.40400    1.000
    C195     C        0.79870    0.90490    0.43610    1.000
    C196     C        0.79200    0.86890    0.43760    1.000
    H79      H        0.79640    0.85530    0.46030    1.000
    C197     C        0.81170    0.92100    0.47080    1.000
    C198     C        0.82550    0.95490    0.46990    1.000
    H80      H        0.82260    0.96980    0.45010    1.000
    C199     C        0.77180    0.93060    0.34250    1.000
    C200     C        0.57790    0.77570    0.34050    1.000
    O90      O        0.76790    0.73110    0.47190    1.000
    Gd11     Gd       0.25577    0.75616    0.08863    1.000
    O91      O        0.20110    0.75740    0.11720    1.000
    O92      O        0.20170    0.74480    0.06090    1.000
    O93      O        0.25920    0.70040    0.11660    1.000
    O94      O        0.26640    0.70030    0.05990    1.000
    O95      O        0.26130    0.58790    0.18140    1.000
    O96      O        0.27700    0.53790    0.15760    1.000
    O97      O        0.08690    0.74580    0.18140    1.000
    O98      O        0.05770    0.70050    0.16500    1.000
    C201     C        0.18310    0.74760    0.08880    1.000
    C202     C        0.14440    0.73850    0.09060    1.000
    C203     C        0.13360    0.71920    0.06090    1.000
    H81      H        0.14830    0.71640    0.04080    1.000
    C204     C        0.09980    0.70440    0.06250    1.000
    C205     C        0.08090    0.70690    0.09400    1.000
    H82      H        0.05910    0.69460    0.09540    1.000
    C206     C        0.09160    0.72590    0.12380    1.000
    C207     C        0.12510    0.74090    0.12170    1.000
    H83      H        0.13470    0.75290    0.14150    1.000
    C208     C        0.08580    0.68520    0.03060    1.000
    C209     C        0.06580    0.65440    0.03160    1.000
    H84      H        0.06260    0.64160    0.05280    1.000
    C210     C        0.26720    0.68470    0.08830    1.000
    C211     C        0.27270    0.64600    0.09210    1.000
    C212     C        0.26810    0.62670    0.12290    1.000
    H85      H        0.25780    0.63770    0.14290    1.000
    C213     C        0.27820    0.59150    0.12490    1.000
    C214     C        0.29350    0.57650    0.09510    1.000
    H86      H        0.30080    0.55250    0.09600    1.000
    C215     C        0.29870    0.59510    0.06390    1.000
    C216     C        0.29200    0.63110    0.06240    1.000
    H87      H        0.29640    0.64470    0.03970    1.000
    C217     C        0.31170    0.57900    0.02920    1.000
    C218     C        0.32550    0.54510    0.03010    1.000
    H88      H        0.32260    0.53020    0.04990    1.000
    C219     C        0.27180    0.56940    0.15750    1.000
    C220     C        0.07790    0.72430    0.15950    1.000
    O99      O        0.26790    0.76890    0.02810    1.000
    Gd12     Gd       0.75577    0.25616    0.58863    1.000
    O100     O        0.70110    0.25740    0.61720    1.000
    O101     O        0.70170    0.24480    0.56090    1.000
    O102     O        0.75920    0.20040    0.61660    1.000
    O103     O        0.76640    0.20030    0.55990    1.000
    O104     O        0.76130    0.08790    0.68140    1.000
    O105     O        0.77700    0.03790    0.65760    1.000
    O106     O        0.58690    0.24580    0.68140    1.000
    O107     O        0.55770    0.20050    0.66500    1.000
    C221     C        0.68310    0.24760    0.58880    1.000
    C222     C        0.64440    0.23850    0.59060    1.000
    C223     C        0.63360    0.21920    0.56090    1.000
    H89      H        0.64830    0.21640    0.54080    1.000
    C224     C        0.59980    0.20440    0.56250    1.000
    C225     C        0.58090    0.20690    0.59400    1.000
    H90      H        0.55910    0.19460    0.59540    1.000
    C226     C        0.59160    0.22590    0.62380    1.000
    C227     C        0.62510    0.24090    0.62170    1.000
    H91      H        0.63470    0.25290    0.64150    1.000
    C228     C        0.58580    0.18520    0.53060    1.000
    C229     C        0.56580    0.15440    0.53160    1.000
    H92      H        0.56260    0.14160    0.55280    1.000
    C230     C        0.76720    0.18470    0.58830    1.000
    C231     C        0.77270    0.14600    0.59210    1.000
    C232     C        0.76810    0.12670    0.62290    1.000
    H93      H        0.75780    0.13770    0.64290    1.000
    C233     C        0.77820    0.09150    0.62490    1.000
    C234     C        0.79350    0.07650    0.59510    1.000
    H94      H        0.80080    0.05250    0.59600    1.000
    C235     C        0.79870    0.09510    0.56390    1.000
    C236     C        0.79200    0.13110    0.56240    1.000
    H95      H        0.79640    0.14470    0.53970    1.000
    C237     C        0.81170    0.07900    0.52920    1.000
    C238     C        0.82550    0.04510    0.53010    1.000
    H96      H        0.82260    0.03020    0.54990    1.000
    C239     C        0.77180    0.06940    0.65750    1.000
    C240     C        0.57790    0.22430    0.65950    1.000
    O108     O        0.76790    0.26890    0.52810    1.000
    Gd13     Gd       0.74423    0.75616    0.91137    1.000
    O109     O        0.79890    0.75740    0.88280    1.000
    O110     O        0.79830    0.74480    0.93910    1.000
    O111     O        0.74080    0.70040    0.88340    1.000
    O112     O        0.73360    0.70030    0.94010    1.000
    O113     O        0.73870    0.58790    0.81860    1.000
    O114     O        0.72300    0.53790    0.84240    1.000
    O115     O        0.91310    0.74580    0.81860    1.000
    O116     O        0.94230    0.70050    0.83500    1.000
    C241     C        0.81690    0.74760    0.91120    1.000
    C242     C        0.85560    0.73850    0.90940    1.000
    C243     C        0.86640    0.71920    0.93910    1.000
    H97      H        0.85170    0.71640    0.95920    1.000
    C244     C        0.90020    0.70440    0.93750    1.000
    C245     C        0.91910    0.70690    0.90600    1.000
    H98      H        0.94090    0.69460    0.90460    1.000
    C246     C        0.90840    0.72590    0.87620    1.000
    C247     C        0.87490    0.74090    0.87830    1.000
    H99      H        0.86530    0.75290    0.85850    1.000
    C248     C        0.91420    0.68520    0.96940    1.000
    C249     C        0.93420    0.65440    0.96840    1.000
    H100     H        0.93740    0.64160    0.94720    1.000
    C250     C        0.73280    0.68470    0.91170    1.000
    C251     C        0.72730    0.64600    0.90790    1.000
    C252     C        0.73190    0.62670    0.87710    1.000
    H101     H        0.74220    0.63770    0.85710    1.000
    C253     C        0.72180    0.59150    0.87510    1.000
    C254     C        0.70650    0.57650    0.90490    1.000
    H102     H        0.69920    0.55250    0.90400    1.000
    C255     C        0.70130    0.59510    0.93610    1.000
    C256     C        0.70800    0.63110    0.93760    1.000
    H103     H        0.70360    0.64470    0.96030    1.000
    C257     C        0.68830    0.57900    0.97080    1.000
    C258     C        0.67450    0.54510    0.96990    1.000
    H104     H        0.67740    0.53020    0.95010    1.000
    C259     C        0.72820    0.56940    0.84250    1.000
    C260     C        0.92210    0.72430    0.84050    1.000
    O117     O        0.73210    0.76890    0.97190    1.000
    Gd14     Gd       0.24423    0.25616    0.41137    1.000
    O118     O        0.29890    0.25740    0.38280    1.000
    O119     O        0.29830    0.24480    0.43910    1.000
    O120     O        0.24080    0.20040    0.38340    1.000
    O121     O        0.23360    0.20030    0.44010    1.000
    O122     O        0.23870    0.08790    0.31860    1.000
    O123     O        0.22300    0.03790    0.34240    1.000
    O124     O        0.41310    0.24580    0.31860    1.000
    O125     O        0.44230    0.20050    0.33500    1.000
    C261     C        0.31690    0.24760    0.41120    1.000
    C262     C        0.35560    0.23850    0.40940    1.000
    C263     C        0.36640    0.21920    0.43910    1.000
    H105     H        0.35170    0.21640    0.45920    1.000
    C264     C        0.40020    0.20440    0.43750    1.000
    C265     C        0.41910    0.20690    0.40600    1.000
    H106     H        0.44090    0.19460    0.40460    1.000
    C266     C        0.40840    0.22590    0.37620    1.000
    C267     C        0.37490    0.24090    0.37830    1.000
    H107     H        0.36530    0.25290    0.35850    1.000
    C268     C        0.41420    0.18520    0.46940    1.000
    C269     C        0.43420    0.15440    0.46840    1.000
    H108     H        0.43740    0.14160    0.44720    1.000
    C270     C        0.23280    0.18470    0.41170    1.000
    C271     C        0.22730    0.14600    0.40790    1.000
    C272     C        0.23190    0.12670    0.37710    1.000
    H109     H        0.24220    0.13770    0.35710    1.000
    C273     C        0.22180    0.09150    0.37510    1.000
    C274     C        0.20650    0.07650    0.40490    1.000
    H110     H        0.19920    0.05250    0.40400    1.000
    C275     C        0.20130    0.09510    0.43610    1.000
    C276     C        0.20800    0.13110    0.43760    1.000
    H111     H        0.20360    0.14470    0.46030    1.000
    C277     C        0.18830    0.07900    0.47080    1.000
    C278     C        0.17450    0.04510    0.46990    1.000
    H112     H        0.17740    0.03020    0.45010    1.000
    C279     C        0.22820    0.06940    0.34250    1.000
    C280     C        0.42210    0.22430    0.34050    1.000
    O126     O        0.23210    0.26890    0.47190    1.000
    Gd15     Gd       0.74423    0.24384    0.08863    1.000
    O127     O        0.79890    0.24260    0.11720    1.000
    O128     O        0.79830    0.25520    0.06090    1.000
    O129     O        0.74080    0.29960    0.11660    1.000
    O130     O        0.73360    0.29970    0.05990    1.000
    O131     O        0.73870    0.41210    0.18140    1.000
    O132     O        0.72300    0.46210    0.15760    1.000
    O133     O        0.91310    0.25420    0.18140    1.000
    O134     O        0.94230    0.29950    0.16500    1.000
    C281     C        0.81690    0.25240    0.08880    1.000
    C282     C        0.85560    0.26150    0.09060    1.000
    C283     C        0.86640    0.28080    0.06090    1.000
    H113     H        0.85170    0.28360    0.04080    1.000
    C284     C        0.90020    0.29560    0.06250    1.000
    C285     C        0.91910    0.29310    0.09400    1.000
    H114     H        0.94090    0.30540    0.09540    1.000
    C286     C        0.90840    0.27410    0.12380    1.000
    C287     C        0.87490    0.25910    0.12170    1.000
    H115     H        0.86530    0.24710    0.14150    1.000
    C288     C        0.91420    0.31480    0.03060    1.000
    C289     C        0.93420    0.34560    0.03160    1.000
    H116     H        0.93740    0.35840    0.05280    1.000
    C290     C        0.73280    0.31530    0.08830    1.000
    C291     C        0.72730    0.35400    0.09210    1.000
    C292     C        0.73190    0.37330    0.12290    1.000
    H117     H        0.74220    0.36230    0.14290    1.000
    C293     C        0.72180    0.40850    0.12490    1.000
    C294     C        0.70650    0.42350    0.09510    1.000
    H118     H        0.69920    0.44750    0.09600    1.000
    C295     C        0.70130    0.40490    0.06390    1.000
    C296     C        0.70800    0.36890    0.06240    1.000
    H119     H        0.70360    0.35530    0.03970    1.000
    C297     C        0.68830    0.42100    0.02920    1.000
    C298     C        0.67450    0.45490    0.03010    1.000
    H120     H        0.67740    0.46980    0.04990    1.000
    C299     C        0.72820    0.43060    0.15750    1.000
    C300     C        0.92210    0.27570    0.15950    1.000
    O135     O        0.73210    0.23110    0.02810    1.000
    Gd16     Gd       0.24423    0.74384    0.58863    1.000
    O136     O        0.29890    0.74260    0.61720    1.000
    O137     O        0.29830    0.75520    0.56090    1.000
    O138     O        0.24080    0.79960    0.61660    1.000
    O139     O        0.23360    0.79970    0.55990    1.000
    O140     O        0.23870    0.91210    0.68140    1.000
    O141     O        0.22300    0.96210    0.65760    1.000
    O142     O        0.41310    0.75420    0.68140    1.000
    O143     O        0.44230    0.79950    0.66500    1.000
    C301     C        0.31690    0.75240    0.58880    1.000
    C302     C        0.35560    0.76150    0.59060    1.000
    C303     C        0.36640    0.78080    0.56090    1.000
    H121     H        0.35170    0.78360    0.54080    1.000
    C304     C        0.40020    0.79560    0.56250    1.000
    C305     C        0.41910    0.79310    0.59400    1.000
    H122     H        0.44090    0.80540    0.59540    1.000
    C306     C        0.40840    0.77410    0.62380    1.000
    C307     C        0.37490    0.75910    0.62170    1.000
    H123     H        0.36530    0.74710    0.64150    1.000
    C308     C        0.41420    0.81480    0.53060    1.000
    C309     C        0.43420    0.84560    0.53160    1.000
    H124     H        0.43740    0.85840    0.55280    1.000
    C310     C        0.23280    0.81530    0.58830    1.000
    C311     C        0.22730    0.85400    0.59210    1.000
    C312     C        0.23190    0.87330    0.62290    1.000
    H125     H        0.24220    0.86230    0.64290    1.000
    C313     C        0.22180    0.90850    0.62490    1.000
    C314     C        0.20650    0.92350    0.59510    1.000
    H126     H        0.19920    0.94750    0.59600    1.000
    C315     C        0.20130    0.90490    0.56390    1.000
    C316     C        0.20800    0.86890    0.56240    1.000
    H127     H        0.20360    0.85530    0.53970    1.000
    C317     C        0.18830    0.92100    0.52920    1.000
    C318     C        0.17450    0.95490    0.53010    1.000
    H128     H        0.17740    0.96980    0.54990    1.000
    C319     C        0.22820    0.93060    0.65750    1.000
    C320     C        0.42210    0.77570    0.65950    1.000
    O144     O        0.23210    0.73110    0.52810    1.000
    Gd17     Gd       0.91137    0.25577    0.24384    1.000
    O145     O        0.88280    0.20110    0.24260    1.000
    O146     O        0.93910    0.20170    0.25520    1.000
    O147     O        0.88340    0.25920    0.29960    1.000
    O148     O        0.94010    0.26640    0.29970    1.000
    O149     O        0.81860    0.26130    0.41210    1.000
    O150     O        0.84240    0.27700    0.46210    1.000
    O151     O        0.81860    0.08690    0.25420    1.000
    O152     O        0.83500    0.05770    0.29950    1.000
    C321     C        0.91120    0.18310    0.25240    1.000
    C322     C        0.90940    0.14440    0.26150    1.000
    C323     C        0.93910    0.13360    0.28080    1.000
    H129     H        0.95920    0.14830    0.28360    1.000
    C324     C        0.93750    0.09980    0.29560    1.000
    C325     C        0.90600    0.08090    0.29310    1.000
    H130     H        0.90460    0.05910    0.30540    1.000
    C326     C        0.87620    0.09160    0.27410    1.000
    C327     C        0.87830    0.12510    0.25910    1.000
    H131     H        0.85850    0.13470    0.24710    1.000
    C328     C        0.96940    0.08580    0.31480    1.000
    C329     C        0.96840    0.06580    0.34560    1.000
    H132     H        0.94720    0.06260    0.35840    1.000
    C330     C        0.91170    0.26720    0.31530    1.000
    C331     C        0.90790    0.27270    0.35400    1.000
    C332     C        0.87710    0.26810    0.37330    1.000
    H133     H        0.85710    0.25780    0.36230    1.000
    C333     C        0.87510    0.27820    0.40850    1.000
    C334     C        0.90490    0.29350    0.42350    1.000
    H134     H        0.90400    0.30080    0.44750    1.000
    C335     C        0.93610    0.29870    0.40490    1.000
    C336     C        0.93760    0.29200    0.36890    1.000
    H135     H        0.96030    0.29640    0.35530    1.000
    C337     C        0.97080    0.31170    0.42100    1.000
    C338     C        0.96990    0.32550    0.45490    1.000
    H136     H        0.95010    0.32260    0.46980    1.000
    C339     C        0.84250    0.27180    0.43060    1.000
    C340     C        0.84050    0.07790    0.27570    1.000
    O153     O        0.97190    0.26790    0.23110    1.000
    Gd18     Gd       0.41137    0.75577    0.74384    1.000
    O154     O        0.38280    0.70110    0.74260    1.000
    O155     O        0.43910    0.70170    0.75520    1.000
    O156     O        0.38340    0.75920    0.79960    1.000
    O157     O        0.44010    0.76640    0.79970    1.000
    O158     O        0.31860    0.76130    0.91210    1.000
    O159     O        0.34240    0.77700    0.96210    1.000
    O160     O        0.31860    0.58690    0.75420    1.000
    O161     O        0.33500    0.55770    0.79950    1.000
    C341     C        0.41120    0.68310    0.75240    1.000
    C342     C        0.40940    0.64440    0.76150    1.000
    C343     C        0.43910    0.63360    0.78080    1.000
    H137     H        0.45920    0.64830    0.78360    1.000
    C344     C        0.43750    0.59980    0.79560    1.000
    C345     C        0.40600    0.58090    0.79310    1.000
    H138     H        0.40460    0.55910    0.80540    1.000
    C346     C        0.37620    0.59160    0.77410    1.000
    C347     C        0.37830    0.62510    0.75910    1.000
    H139     H        0.35850    0.63470    0.74710    1.000
    C348     C        0.46940    0.58580    0.81480    1.000
    C349     C        0.46840    0.56580    0.84560    1.000
    H140     H        0.44720    0.56260    0.85840    1.000
    C350     C        0.41170    0.76720    0.81530    1.000
    C351     C        0.40790    0.77270    0.85400    1.000
    C352     C        0.37710    0.76810    0.87330    1.000
    H141     H        0.35710    0.75780    0.86230    1.000
    C353     C        0.37510    0.77820    0.90850    1.000
    C354     C        0.40490    0.79350    0.92350    1.000
    H142     H        0.40400    0.80080    0.94750    1.000
    C355     C        0.43610    0.79870    0.90490    1.000
    C356     C        0.43760    0.79200    0.86890    1.000
    H143     H        0.46030    0.79640    0.85530    1.000
    C357     C        0.47080    0.81170    0.92100    1.000
    C358     C        0.46990    0.82550    0.95490    1.000
    H144     H        0.45010    0.82260    0.96980    1.000
    C359     C        0.34250    0.77180    0.93060    1.000
    C360     C        0.34050    0.57790    0.77570    1.000
    O162     O        0.47190    0.76790    0.73110    1.000
    Gd19     Gd       0.08863    0.25577    0.75616    1.000
    O163     O        0.11720    0.20110    0.75740    1.000
    O164     O        0.06090    0.20170    0.74480    1.000
    O165     O        0.11660    0.25920    0.70040    1.000
    O166     O        0.05990    0.26640    0.70030    1.000
    O167     O        0.18140    0.26130    0.58790    1.000
    O168     O        0.15760    0.27700    0.53790    1.000
    O169     O        0.18140    0.08690    0.74580    1.000
    O170     O        0.16500    0.05770    0.70050    1.000
    C361     C        0.08880    0.18310    0.74760    1.000
    C362     C        0.09060    0.14440    0.73850    1.000
    C363     C        0.06090    0.13360    0.71920    1.000
    H145     H        0.04080    0.14830    0.71640    1.000
    C364     C        0.06250    0.09980    0.70440    1.000
    C365     C        0.09400    0.08090    0.70690    1.000
    H146     H        0.09540    0.05910    0.69460    1.000
    C366     C        0.12380    0.09160    0.72590    1.000
    C367     C        0.12170    0.12510    0.74090    1.000
    H147     H        0.14150    0.13470    0.75290    1.000
    C368     C        0.03060    0.08580    0.68520    1.000
    C369     C        0.03160    0.06580    0.65440    1.000
    H148     H        0.05280    0.06260    0.64160    1.000
    C370     C        0.08830    0.26720    0.68470    1.000
    C371     C        0.09210    0.27270    0.64600    1.000
    C372     C        0.12290    0.26810    0.62670    1.000
    H149     H        0.14290    0.25780    0.63770    1.000
    C373     C        0.12490    0.27820    0.59150    1.000
    C374     C        0.09510    0.29350    0.57650    1.000
    H150     H        0.09600    0.30080    0.55250    1.000
    C375     C        0.06390    0.29870    0.59510    1.000
    C376     C        0.06240    0.29200    0.63110    1.000
    H151     H        0.03970    0.29640    0.64470    1.000
    C377     C        0.02920    0.31170    0.57900    1.000
    C378     C        0.03010    0.32550    0.54510    1.000
    H152     H        0.04990    0.32260    0.53020    1.000
    C379     C        0.15750    0.27180    0.56940    1.000
    C380     C        0.15950    0.07790    0.72430    1.000
    O171     O        0.02810    0.26790    0.76890    1.000
    Gd20     Gd       0.58863    0.75577    0.25616    1.000
    O172     O        0.61720    0.70110    0.25740    1.000
    O173     O        0.56090    0.70170    0.24480    1.000
    O174     O        0.61660    0.75920    0.20040    1.000
    O175     O        0.55990    0.76640    0.20030    1.000
    O176     O        0.68140    0.76130    0.08790    1.000
    O177     O        0.65760    0.77700    0.03790    1.000
    O178     O        0.68140    0.58690    0.24580    1.000
    O179     O        0.66500    0.55770    0.20050    1.000
    C381     C        0.58880    0.68310    0.24760    1.000
    C382     C        0.59060    0.64440    0.23850    1.000
    C383     C        0.56090    0.63360    0.21920    1.000
    H153     H        0.54080    0.64830    0.21640    1.000
    C384     C        0.56250    0.59980    0.20440    1.000
    C385     C        0.59400    0.58090    0.20690    1.000
    H154     H        0.59540    0.55910    0.19460    1.000
    C386     C        0.62380    0.59160    0.22590    1.000
    C387     C        0.62170    0.62510    0.24090    1.000
    H155     H        0.64150    0.63470    0.25290    1.000
    C388     C        0.53060    0.58580    0.18520    1.000
    C389     C        0.53160    0.56580    0.15440    1.000
    H156     H        0.55280    0.56260    0.14160    1.000
    C390     C        0.58830    0.76720    0.18470    1.000
    C391     C        0.59210    0.77270    0.14600    1.000
    C392     C        0.62290    0.76810    0.12670    1.000
    H157     H        0.64290    0.75780    0.13770    1.000
    C393     C        0.62490    0.77820    0.09150    1.000
    C394     C        0.59510    0.79350    0.07650    1.000
    H158     H        0.59600    0.80080    0.05250    1.000
    C395     C        0.56390    0.79870    0.09510    1.000
    C396     C        0.56240    0.79200    0.13110    1.000
    H159     H        0.53970    0.79640    0.14470    1.000
    C397     C        0.52920    0.81170    0.07900    1.000
    C398     C        0.53010    0.82550    0.04510    1.000
    H160     H        0.54990    0.82260    0.03020    1.000
    C399     C        0.65750    0.77180    0.06940    1.000
    C400     C        0.65950    0.57790    0.22430    1.000
    O180     O        0.52810    0.76790    0.26890    1.000
    Gd21     Gd       0.91137    0.74423    0.75616    1.000
    O181     O        0.88280    0.79890    0.75740    1.000
    O182     O        0.93910    0.79830    0.74480    1.000
    O183     O        0.88340    0.74080    0.70040    1.000
    O184     O        0.94010    0.73360    0.70030    1.000
    O185     O        0.81860    0.73870    0.58790    1.000
    O186     O        0.84240    0.72300    0.53790    1.000
    O187     O        0.81860    0.91310    0.74580    1.000
    O188     O        0.83500    0.94230    0.70050    1.000
    C401     C        0.91120    0.81690    0.74760    1.000
    C402     C        0.90940    0.85560    0.73850    1.000
    C403     C        0.93910    0.86640    0.71920    1.000
    H161     H        0.95920    0.85170    0.71640    1.000
    C404     C        0.93750    0.90020    0.70440    1.000
    C405     C        0.90600    0.91910    0.70690    1.000
    H162     H        0.90460    0.94090    0.69460    1.000
    C406     C        0.87620    0.90840    0.72590    1.000
    C407     C        0.87830    0.87490    0.74090    1.000
    H163     H        0.85850    0.86530    0.75290    1.000
    C408     C        0.96940    0.91420    0.68520    1.000
    C409     C        0.96840    0.93420    0.65440    1.000
    H164     H        0.94720    0.93740    0.64160    1.000
    C410     C        0.91170    0.73280    0.68470    1.000
    C411     C        0.90790    0.72730    0.64600    1.000
    C412     C        0.87710    0.73190    0.62670    1.000
    H165     H        0.85710    0.74220    0.63770    1.000
    C413     C        0.87510    0.72180    0.59150    1.000
    C414     C        0.90490    0.70650    0.57650    1.000
    H166     H        0.90400    0.69920    0.55250    1.000
    C415     C        0.93610    0.70130    0.59510    1.000
    C416     C        0.93760    0.70800    0.63110    1.000
    H167     H        0.96030    0.70360    0.64470    1.000
    C417     C        0.97080    0.68830    0.57900    1.000
    C418     C        0.96990    0.67450    0.54510    1.000
    H168     H        0.95010    0.67740    0.53020    1.000
    C419     C        0.84250    0.72820    0.56940    1.000
    C420     C        0.84050    0.92210    0.72430    1.000
    O189     O        0.97190    0.73210    0.76890    1.000
    Gd22     Gd       0.41137    0.24423    0.25616    1.000
    O190     O        0.38280    0.29890    0.25740    1.000
    O191     O        0.43910    0.29830    0.24480    1.000
    O192     O        0.38340    0.24080    0.20040    1.000
    O193     O        0.44010    0.23360    0.20030    1.000
    O194     O        0.31860    0.23870    0.08790    1.000
    O195     O        0.34240    0.22300    0.03790    1.000
    O196     O        0.31860    0.41310    0.24580    1.000
    O197     O        0.33500    0.44230    0.20050    1.000
    C421     C        0.41120    0.31690    0.24760    1.000
    C422     C        0.40940    0.35560    0.23850    1.000
    C423     C        0.43910    0.36640    0.21920    1.000
    H169     H        0.45920    0.35170    0.21640    1.000
    C424     C        0.43750    0.40020    0.20440    1.000
    C425     C        0.40600    0.41910    0.20690    1.000
    H170     H        0.40460    0.44090    0.19460    1.000
    C426     C        0.37620    0.40840    0.22590    1.000
    C427     C        0.37830    0.37490    0.24090    1.000
    H171     H        0.35850    0.36530    0.25290    1.000
    C428     C        0.46940    0.41420    0.18520    1.000
    C429     C        0.46840    0.43420    0.15440    1.000
    H172     H        0.44720    0.43740    0.14160    1.000
    C430     C        0.41170    0.23280    0.18470    1.000
    C431     C        0.40790    0.22730    0.14600    1.000
    C432     C        0.37710    0.23190    0.12670    1.000
    H173     H        0.35710    0.24220    0.13770    1.000
    C433     C        0.37510    0.22180    0.09150    1.000
    C434     C        0.40490    0.20650    0.07650    1.000
    H174     H        0.40400    0.19920    0.05250    1.000
    C435     C        0.43610    0.20130    0.09510    1.000
    C436     C        0.43760    0.20800    0.13110    1.000
    H175     H        0.46030    0.20360    0.14470    1.000
    C437     C        0.47080    0.18830    0.07900    1.000
    C438     C        0.46990    0.17450    0.04510    1.000
    H176     H        0.45010    0.17740    0.03020    1.000
    C439     C        0.34250    0.22820    0.06940    1.000
    C440     C        0.34050    0.42210    0.22430    1.000
    O198     O        0.47190    0.23210    0.26890    1.000
    Gd23     Gd       0.08863    0.74423    0.24384    1.000
    O199     O        0.11720    0.79890    0.24260    1.000
    O200     O        0.06090    0.79830    0.25520    1.000
    O201     O        0.11660    0.74080    0.29960    1.000
    O202     O        0.05990    0.73360    0.29970    1.000
    O203     O        0.18140    0.73870    0.41210    1.000
    O204     O        0.15760    0.72300    0.46210    1.000
    O205     O        0.18140    0.91310    0.25420    1.000
    O206     O        0.16500    0.94230    0.29950    1.000
    C441     C        0.08880    0.81690    0.25240    1.000
    C442     C        0.09060    0.85560    0.26150    1.000
    C443     C        0.06090    0.86640    0.28080    1.000
    H177     H        0.04080    0.85170    0.28360    1.000
    C444     C        0.06250    0.90020    0.29560    1.000
    C445     C        0.09400    0.91910    0.29310    1.000
    H178     H        0.09540    0.94090    0.30540    1.000
    C446     C        0.12380    0.90840    0.27410    1.000
    C447     C        0.12170    0.87490    0.25910    1.000
    H179     H        0.14150    0.86530    0.24710    1.000
    C448     C        0.03060    0.91420    0.31480    1.000
    C449     C        0.03160    0.93420    0.34560    1.000
    H180     H        0.05280    0.93740    0.35840    1.000
    C450     C        0.08830    0.73280    0.31530    1.000
    C451     C        0.09210    0.72730    0.35400    1.000
    C452     C        0.12290    0.73190    0.37330    1.000
    H181     H        0.14290    0.74220    0.36230    1.000
    C453     C        0.12490    0.72180    0.40850    1.000
    C454     C        0.09510    0.70650    0.42350    1.000
    H182     H        0.09600    0.69920    0.44750    1.000
    C455     C        0.06390    0.70130    0.40490    1.000
    C456     C        0.06240    0.70800    0.36890    1.000
    H183     H        0.03970    0.70360    0.35530    1.000
    C457     C        0.02920    0.68830    0.42100    1.000
    C458     C        0.03010    0.67450    0.45490    1.000
    H184     H        0.04990    0.67740    0.46980    1.000
    C459     C        0.15750    0.72820    0.43060    1.000
    C460     C        0.15950    0.92210    0.27570    1.000
    O207     O        0.02810    0.73210    0.23110    1.000
    Gd24     Gd       0.58863    0.24423    0.74384    1.000
    O208     O        0.61720    0.29890    0.74260    1.000
    O209     O        0.56090    0.29830    0.75520    1.000
    O210     O        0.61660    0.24080    0.79960    1.000
    O211     O        0.55990    0.23360    0.79970    1.000
    O212     O        0.68140    0.23870    0.91210    1.000
    O213     O        0.65760    0.22300    0.96210    1.000
    O214     O        0.68140    0.41310    0.75420    1.000
    O215     O        0.66500    0.44230    0.79950    1.000
    C461     C        0.58880    0.31690    0.75240    1.000
    C462     C        0.59060    0.35560    0.76150    1.000
    C463     C        0.56090    0.36640    0.78080    1.000
    H185     H        0.54080    0.35170    0.78360    1.000
    C464     C        0.56250    0.40020    0.79560    1.000
    C465     C        0.59400    0.41910    0.79310    1.000
    H186     H        0.59540    0.44090    0.80540    1.000
    C466     C        0.62380    0.40840    0.77410    1.000
    C467     C        0.62170    0.37490    0.75910    1.000
    H187     H        0.64150    0.36530    0.74710    1.000
    C468     C        0.53060    0.41420    0.81480    1.000
    C469     C        0.53160    0.43420    0.84560    1.000
    H188     H        0.55280    0.43740    0.85840    1.000
    C470     C        0.58830    0.23280    0.81530    1.000
    C471     C        0.59210    0.22730    0.85400    1.000
    C472     C        0.62290    0.23190    0.87330    1.000
    H189     H        0.64290    0.24220    0.86230    1.000
    C473     C        0.62490    0.22180    0.90850    1.000
    C474     C        0.59510    0.20650    0.92350    1.000
    H190     H        0.59600    0.19920    0.94750    1.000
    C475     C        0.56390    0.20130    0.90490    1.000
    C476     C        0.56240    0.20800    0.86890    1.000
    H191     H        0.53970    0.20360    0.85530    1.000
    C477     C        0.52920    0.18830    0.92100    1.000
    C478     C        0.53010    0.17450    0.95490    1.000
    H192     H        0.54990    0.17740    0.96980    1.000
    C479     C        0.65750    0.22820    0.93060    1.000
    C480     C        0.65950    0.42210    0.77570    1.000
    O216     O        0.52810    0.23210    0.73110    1.000
    Gd25     Gd       0.75616    0.08863    0.74423    1.000
    O217     O        0.75740    0.11720    0.79890    1.000
    O218     O        0.74480    0.06090    0.79830    1.000
    O219     O        0.70040    0.11660    0.74080    1.000
    O220     O        0.70030    0.05990    0.73360    1.000
    O221     O        0.58790    0.18140    0.73870    1.000
    O222     O        0.53790    0.15760    0.72300    1.000
    O223     O        0.74580    0.18140    0.91310    1.000
    O224     O        0.70050    0.16500    0.94230    1.000
    C481     C        0.74760    0.08880    0.81690    1.000
    C482     C        0.73850    0.09060    0.85560    1.000
    C483     C        0.71920    0.06090    0.86640    1.000
    H193     H        0.71640    0.04080    0.85170    1.000
    C484     C        0.70440    0.06250    0.90020    1.000
    C485     C        0.70690    0.09400    0.91910    1.000
    H194     H        0.69460    0.09540    0.94090    1.000
    C486     C        0.72590    0.12380    0.90840    1.000
    C487     C        0.74090    0.12170    0.87490    1.000
    H195     H        0.75290    0.14150    0.86530    1.000
    C488     C        0.68520    0.03060    0.91420    1.000
    C489     C        0.65440    0.03160    0.93420    1.000
    H196     H        0.64160    0.05280    0.93740    1.000
    C490     C        0.68470    0.08830    0.73280    1.000
    C491     C        0.64600    0.09210    0.72730    1.000
    C492     C        0.62670    0.12290    0.73190    1.000
    H197     H        0.63770    0.14290    0.74220    1.000
    C493     C        0.59150    0.12490    0.72180    1.000
    C494     C        0.57650    0.09510    0.70650    1.000
    H198     H        0.55250    0.09600    0.69920    1.000
    C495     C        0.59510    0.06390    0.70130    1.000
    C496     C        0.63110    0.06240    0.70800    1.000
    H199     H        0.64470    0.03970    0.70360    1.000
    C497     C        0.57900    0.02920    0.68830    1.000
    C498     C        0.54510    0.03010    0.67450    1.000
    H200     H        0.53020    0.04990    0.67740    1.000
    C499     C        0.56940    0.15750    0.72820    1.000
    C500     C        0.72430    0.15950    0.92210    1.000
    O225     O        0.76890    0.02810    0.73210    1.000
    Gd26     Gd       0.25616    0.58863    0.24423    1.000
    O226     O        0.25740    0.61720    0.29890    1.000
    O227     O        0.24480    0.56090    0.29830    1.000
    O228     O        0.20040    0.61660    0.24080    1.000
    O229     O        0.20030    0.55990    0.23360    1.000
    O230     O        0.08790    0.68140    0.23870    1.000
    O231     O        0.03790    0.65760    0.22300    1.000
    O232     O        0.24580    0.68140    0.41310    1.000
    O233     O        0.20050    0.66500    0.44230    1.000
    C501     C        0.24760    0.58880    0.31690    1.000
    C502     C        0.23850    0.59060    0.35560    1.000
    C503     C        0.21920    0.56090    0.36640    1.000
    H201     H        0.21640    0.54080    0.35170    1.000
    C504     C        0.20440    0.56250    0.40020    1.000
    C505     C        0.20690    0.59400    0.41910    1.000
    H202     H        0.19460    0.59540    0.44090    1.000
    C506     C        0.22590    0.62380    0.40840    1.000
    C507     C        0.24090    0.62170    0.37490    1.000
    H203     H        0.25290    0.64150    0.36530    1.000
    C508     C        0.18520    0.53060    0.41420    1.000
    C509     C        0.15440    0.53160    0.43420    1.000
    H204     H        0.14160    0.55280    0.43740    1.000
    C510     C        0.18470    0.58830    0.23280    1.000
    C511     C        0.14600    0.59210    0.22730    1.000
    C512     C        0.12670    0.62290    0.23190    1.000
    H205     H        0.13770    0.64290    0.24220    1.000
    C513     C        0.09150    0.62490    0.22180    1.000
    C514     C        0.07650    0.59510    0.20650    1.000
    H206     H        0.05250    0.59600    0.19920    1.000
    C515     C        0.09510    0.56390    0.20130    1.000
    C516     C        0.13110    0.56240    0.20800    1.000
    H207     H        0.14470    0.53970    0.20360    1.000
    C517     C        0.07900    0.52920    0.18830    1.000
    C518     C        0.04510    0.53010    0.17450    1.000
    H208     H        0.03020    0.54990    0.17740    1.000
    C519     C        0.06940    0.65750    0.22820    1.000
    C520     C        0.22430    0.65950    0.42210    1.000
    O234     O        0.26890    0.52810    0.23210    1.000
    Gd27     Gd       0.24384    0.91137    0.74423    1.000
    O235     O        0.24260    0.88280    0.79890    1.000
    O236     O        0.25520    0.93910    0.79830    1.000
    O237     O        0.29960    0.88340    0.74080    1.000
    O238     O        0.29970    0.94010    0.73360    1.000
    O239     O        0.41210    0.81860    0.73870    1.000
    O240     O        0.46210    0.84240    0.72300    1.000
    O241     O        0.25420    0.81860    0.91310    1.000
    O242     O        0.29950    0.83500    0.94230    1.000
    C521     C        0.25240    0.91120    0.81690    1.000
    C522     C        0.26150    0.90940    0.85560    1.000
    C523     C        0.28080    0.93910    0.86640    1.000
    H209     H        0.28360    0.95920    0.85170    1.000
    C524     C        0.29560    0.93750    0.90020    1.000
    C525     C        0.29310    0.90600    0.91910    1.000
    H210     H        0.30540    0.90460    0.94090    1.000
    C526     C        0.27410    0.87620    0.90840    1.000
    C527     C        0.25910    0.87830    0.87490    1.000
    H211     H        0.24710    0.85850    0.86530    1.000
    C528     C        0.31480    0.96940    0.91420    1.000
    C529     C        0.34560    0.96840    0.93420    1.000
    H212     H        0.35840    0.94720    0.93740    1.000
    C530     C        0.31530    0.91170    0.73280    1.000
    C531     C        0.35400    0.90790    0.72730    1.000
    C532     C        0.37330    0.87710    0.73190    1.000
    H213     H        0.36230    0.85710    0.74220    1.000
    C533     C        0.40850    0.87510    0.72180    1.000
    C534     C        0.42350    0.90490    0.70650    1.000
    H214     H        0.44750    0.90400    0.69920    1.000
    C535     C        0.40490    0.93610    0.70130    1.000
    C536     C        0.36890    0.93760    0.70800    1.000
    H215     H        0.35530    0.96030    0.70360    1.000
    C537     C        0.42100    0.97080    0.68830    1.000
    C538     C        0.45490    0.96990    0.67450    1.000
    H216     H        0.46980    0.95010    0.67740    1.000
    C539     C        0.43060    0.84250    0.72820    1.000
    C540     C        0.27570    0.84050    0.92210    1.000
    O243     O        0.23110    0.97190    0.73210    1.000
    Gd28     Gd       0.74384    0.41137    0.24423    1.000
    O244     O        0.74260    0.38280    0.29890    1.000
    O245     O        0.75520    0.43910    0.29830    1.000
    O246     O        0.79960    0.38340    0.24080    1.000
    O247     O        0.79970    0.44010    0.23360    1.000
    O248     O        0.91210    0.31860    0.23870    1.000
    O249     O        0.96210    0.34240    0.22300    1.000
    O250     O        0.75420    0.31860    0.41310    1.000
    O251     O        0.79950    0.33500    0.44230    1.000
    C541     C        0.75240    0.41120    0.31690    1.000
    C542     C        0.76150    0.40940    0.35560    1.000
    C543     C        0.78080    0.43910    0.36640    1.000
    H217     H        0.78360    0.45920    0.35170    1.000
    C544     C        0.79560    0.43750    0.40020    1.000
    C545     C        0.79310    0.40600    0.41910    1.000
    H218     H        0.80540    0.40460    0.44090    1.000
    C546     C        0.77410    0.37620    0.40840    1.000
    C547     C        0.75910    0.37830    0.37490    1.000
    H219     H        0.74710    0.35850    0.36530    1.000
    C548     C        0.81480    0.46940    0.41420    1.000
    C549     C        0.84560    0.46840    0.43420    1.000
    H220     H        0.85840    0.44720    0.43740    1.000
    C550     C        0.81530    0.41170    0.23280    1.000
    C551     C        0.85400    0.40790    0.22730    1.000
    C552     C        0.87330    0.37710    0.23190    1.000
    H221     H        0.86230    0.35710    0.24220    1.000
    C553     C        0.90850    0.37510    0.22180    1.000
    C554     C        0.92350    0.40490    0.20650    1.000
    H222     H        0.94750    0.40400    0.19920    1.000
    C555     C        0.90490    0.43610    0.20130    1.000
    C556     C        0.86890    0.43760    0.20800    1.000
    H223     H        0.85530    0.46030    0.20360    1.000
    C557     C        0.92100    0.47080    0.18830    1.000
    C558     C        0.95490    0.46990    0.17450    1.000
    H224     H        0.96980    0.45010    0.17740    1.000
    C559     C        0.93060    0.34250    0.22820    1.000
    C560     C        0.77570    0.34050    0.42210    1.000
    O252     O        0.73110    0.47190    0.23210    1.000
    Gd29     Gd       0.24384    0.08863    0.25577    1.000
    O253     O        0.24260    0.11720    0.20110    1.000
    O254     O        0.25520    0.06090    0.20170    1.000
    O255     O        0.29960    0.11660    0.25920    1.000
    O256     O        0.29970    0.05990    0.26640    1.000
    O257     O        0.41210    0.18140    0.26130    1.000
    O258     O        0.46210    0.15760    0.27700    1.000
    O259     O        0.25420    0.18140    0.08690    1.000
    O260     O        0.29950    0.16500    0.05770    1.000
    C561     C        0.25240    0.08880    0.18310    1.000
    C562     C        0.26150    0.09060    0.14440    1.000
    C563     C        0.28080    0.06090    0.13360    1.000
    H225     H        0.28360    0.04080    0.14830    1.000
    C564     C        0.29560    0.06250    0.09980    1.000
    C565     C        0.29310    0.09400    0.08090    1.000
    H226     H        0.30540    0.09540    0.05910    1.000
    C566     C        0.27410    0.12380    0.09160    1.000
    C567     C        0.25910    0.12170    0.12510    1.000
    H227     H        0.24710    0.14150    0.13470    1.000
    C568     C        0.31480    0.03060    0.08580    1.000
    C569     C        0.34560    0.03160    0.06580    1.000
    H228     H        0.35840    0.05280    0.06260    1.000
    C570     C        0.31530    0.08830    0.26720    1.000
    C571     C        0.35400    0.09210    0.27270    1.000
    C572     C        0.37330    0.12290    0.26810    1.000
    H229     H        0.36230    0.14290    0.25780    1.000
    C573     C        0.40850    0.12490    0.27820    1.000
    C574     C        0.42350    0.09510    0.29350    1.000
    H230     H        0.44750    0.09600    0.30080    1.000
    C575     C        0.40490    0.06390    0.29870    1.000
    C576     C        0.36890    0.06240    0.29200    1.000
    H231     H        0.35530    0.03970    0.29640    1.000
    C577     C        0.42100    0.02920    0.31170    1.000
    C578     C        0.45490    0.03010    0.32550    1.000
    H232     H        0.46980    0.04990    0.32260    1.000
    C579     C        0.43060    0.15750    0.27180    1.000
    C580     C        0.27570    0.15950    0.07790    1.000
    O261     O        0.23110    0.02810    0.26790    1.000
    Gd30     Gd       0.74384    0.58863    0.75577    1.000
    O262     O        0.74260    0.61720    0.70110    1.000
    O263     O        0.75520    0.56090    0.70170    1.000
    O264     O        0.79960    0.61660    0.75920    1.000
    O265     O        0.79970    0.55990    0.76640    1.000
    O266     O        0.91210    0.68140    0.76130    1.000
    O267     O        0.96210    0.65760    0.77700    1.000
    O268     O        0.75420    0.68140    0.58690    1.000
    O269     O        0.79950    0.66500    0.55770    1.000
    C581     C        0.75240    0.58880    0.68310    1.000
    C582     C        0.76150    0.59060    0.64440    1.000
    C583     C        0.78080    0.56090    0.63360    1.000
    H233     H        0.78360    0.54080    0.64830    1.000
    C584     C        0.79560    0.56250    0.59980    1.000
    C585     C        0.79310    0.59400    0.58090    1.000
    H234     H        0.80540    0.59540    0.55910    1.000
    C586     C        0.77410    0.62380    0.59160    1.000
    C587     C        0.75910    0.62170    0.62510    1.000
    H235     H        0.74710    0.64150    0.63470    1.000
    C588     C        0.81480    0.53060    0.58580    1.000
    C589     C        0.84560    0.53160    0.56580    1.000
    H236     H        0.85840    0.55280    0.56260    1.000
    C590     C        0.81530    0.58830    0.76720    1.000
    C591     C        0.85400    0.59210    0.77270    1.000
    C592     C        0.87330    0.62290    0.76810    1.000
    H237     H        0.86230    0.64290    0.75780    1.000
    C593     C        0.90850    0.62490    0.77820    1.000
    C594     C        0.92350    0.59510    0.79350    1.000
    H238     H        0.94750    0.59600    0.80080    1.000
    C595     C        0.90490    0.56390    0.79870    1.000
    C596     C        0.86890    0.56240    0.79200    1.000
    H239     H        0.85530    0.53970    0.79640    1.000
    C597     C        0.92100    0.52920    0.81170    1.000
    C598     C        0.95490    0.53010    0.82550    1.000
    H240     H        0.96980    0.54990    0.82260    1.000
    C599     C        0.93060    0.65750    0.77180    1.000
    C600     C        0.77570    0.65950    0.57790    1.000
    O270     O        0.73110    0.52810    0.76790    1.000
    Gd31     Gd       0.75616    0.91137    0.25577    1.000
    O271     O        0.75740    0.88280    0.20110    1.000
    O272     O        0.74480    0.93910    0.20170    1.000
    O273     O        0.70040    0.88340    0.25920    1.000
    O274     O        0.70030    0.94010    0.26640    1.000
    O275     O        0.58790    0.81860    0.26130    1.000
    O276     O        0.53790    0.84240    0.27700    1.000
    O277     O        0.74580    0.81860    0.08690    1.000
    O278     O        0.70050    0.83500    0.05770    1.000
    C601     C        0.74760    0.91120    0.18310    1.000
    C602     C        0.73850    0.90940    0.14440    1.000
    C603     C        0.71920    0.93910    0.13360    1.000
    H241     H        0.71640    0.95920    0.14830    1.000
    C604     C        0.70440    0.93750    0.09980    1.000
    C605     C        0.70690    0.90600    0.08090    1.000
    H242     H        0.69460    0.90460    0.05910    1.000
    C606     C        0.72590    0.87620    0.09160    1.000
    C607     C        0.74090    0.87830    0.12510    1.000
    H243     H        0.75290    0.85850    0.13470    1.000
    C608     C        0.68520    0.96940    0.08580    1.000
    C609     C        0.65440    0.96840    0.06580    1.000
    H244     H        0.64160    0.94720    0.06260    1.000
    C610     C        0.68470    0.91170    0.26720    1.000
    C611     C        0.64600    0.90790    0.27270    1.000
    C612     C        0.62670    0.87710    0.26810    1.000
    H245     H        0.63770    0.85710    0.25780    1.000
    C613     C        0.59150    0.87510    0.27820    1.000
    C614     C        0.57650    0.90490    0.29350    1.000
    H246     H        0.55250    0.90400    0.30080    1.000
    C615     C        0.59510    0.93610    0.29870    1.000
    C616     C        0.63110    0.93760    0.29200    1.000
    H247     H        0.64470    0.96030    0.29640    1.000
    C617     C        0.57900    0.97080    0.31170    1.000
    C618     C        0.54510    0.96990    0.32550    1.000
    H248     H        0.53020    0.95010    0.32260    1.000
    C619     C        0.56940    0.84250    0.27180    1.000
    C620     C        0.72430    0.84050    0.07790    1.000
    O279     O        0.76890    0.97190    0.26790    1.000
    Gd32     Gd       0.25616    0.41137    0.75577    1.000
    O280     O        0.25740    0.38280    0.70110    1.000
    O281     O        0.24480    0.43910    0.70170    1.000
    O282     O        0.20040    0.38340    0.75920    1.000
    O283     O        0.20030    0.44010    0.76640    1.000
    O284     O        0.08790    0.31860    0.76130    1.000
    O285     O        0.03790    0.34240    0.77700    1.000
    O286     O        0.24580    0.31860    0.58690    1.000
    O287     O        0.20050    0.33500    0.55770    1.000
    C621     C        0.24760    0.41120    0.68310    1.000
    C622     C        0.23850    0.40940    0.64440    1.000
    C623     C        0.21920    0.43910    0.63360    1.000
    H249     H        0.21640    0.45920    0.64830    1.000
    C624     C        0.20440    0.43750    0.59980    1.000
    C625     C        0.20690    0.40600    0.58090    1.000
    H250     H        0.19460    0.40460    0.55910    1.000
    C626     C        0.22590    0.37620    0.59160    1.000
    C627     C        0.24090    0.37830    0.62510    1.000
    H251     H        0.25290    0.35850    0.63470    1.000
    C628     C        0.18520    0.46940    0.58580    1.000
    C629     C        0.15440    0.46840    0.56580    1.000
    H252     H        0.14160    0.44720    0.56260    1.000
    C630     C        0.18470    0.41170    0.76720    1.000
    C631     C        0.14600    0.40790    0.77270    1.000
    C632     C        0.12670    0.37710    0.76810    1.000
    H253     H        0.13770    0.35710    0.75780    1.000
    C633     C        0.09150    0.37510    0.77820    1.000
    C634     C        0.07650    0.40490    0.79350    1.000
    H254     H        0.05250    0.40400    0.80080    1.000
    C635     C        0.09510    0.43610    0.79870    1.000
    C636     C        0.13110    0.43760    0.79200    1.000
    H255     H        0.14470    0.46030    0.79640    1.000
    C637     C        0.07900    0.47080    0.81170    1.000
    C638     C        0.04510    0.46990    0.82550    1.000
    H256     H        0.03020    0.45010    0.82260    1.000
    C639     C        0.06940    0.34250    0.77180    1.000
    C640     C        0.22430    0.34050    0.57790    1.000
    O288     O        0.26890    0.47190    0.76790    1.000
    Gd33     Gd       0.74423    0.75616    0.08863    1.000
    O289     O        0.79890    0.75740    0.11720    1.000
    O290     O        0.79830    0.74480    0.06090    1.000
    O291     O        0.74080    0.70040    0.11660    1.000
    O292     O        0.73360    0.70030    0.05990    1.000
    O293     O        0.73870    0.58790    0.18140    1.000
    O294     O        0.72300    0.53790    0.15760    1.000
    O295     O        0.91310    0.74580    0.18140    1.000
    O296     O        0.94230    0.70050    0.16500    1.000
    C641     C        0.81690    0.74760    0.08880    1.000
    C642     C        0.85560    0.73850    0.09060    1.000
    C643     C        0.86640    0.71920    0.06090    1.000
    H257     H        0.85170    0.71640    0.04080    1.000
    C644     C        0.90020    0.70440    0.06250    1.000
    C645     C        0.91910    0.70690    0.09400    1.000
    H258     H        0.94090    0.69460    0.09540    1.000
    C646     C        0.90840    0.72590    0.12380    1.000
    C647     C        0.87490    0.74090    0.12170    1.000
    H259     H        0.86530    0.75290    0.14150    1.000
    C648     C        0.91420    0.68520    0.03060    1.000
    C649     C        0.93420    0.65440    0.03160    1.000
    H260     H        0.93740    0.64160    0.05280    1.000
    C650     C        0.73280    0.68470    0.08830    1.000
    C651     C        0.72730    0.64600    0.09210    1.000
    C652     C        0.73190    0.62670    0.12290    1.000
    H261     H        0.74220    0.63770    0.14290    1.000
    C653     C        0.72180    0.59150    0.12490    1.000
    C654     C        0.70650    0.57650    0.09510    1.000
    H262     H        0.69920    0.55250    0.09600    1.000
    C655     C        0.70130    0.59510    0.06390    1.000
    C656     C        0.70800    0.63110    0.06240    1.000
    H263     H        0.70360    0.64470    0.03970    1.000
    C657     C        0.68830    0.57900    0.02920    1.000
    C658     C        0.67450    0.54510    0.03010    1.000
    H264     H        0.67740    0.53020    0.04990    1.000
    C659     C        0.72820    0.56940    0.15750    1.000
    C660     C        0.92210    0.72430    0.15950    1.000
    O297     O        0.73210    0.76890    0.02810    1.000
    Gd34     Gd       0.24423    0.25616    0.58863    1.000
    O298     O        0.29890    0.25740    0.61720    1.000
    O299     O        0.29830    0.24480    0.56090    1.000
    O300     O        0.24080    0.20040    0.61660    1.000
    O301     O        0.23360    0.20030    0.55990    1.000
    O302     O        0.23870    0.08790    0.68140    1.000
    O303     O        0.22300    0.03790    0.65760    1.000
    O304     O        0.41310    0.24580    0.68140    1.000
    O305     O        0.44230    0.20050    0.66500    1.000
    C661     C        0.31690    0.24760    0.58880    1.000
    C662     C        0.35560    0.23850    0.59060    1.000
    C663     C        0.36640    0.21920    0.56090    1.000
    H265     H        0.35170    0.21640    0.54080    1.000
    C664     C        0.40020    0.20440    0.56250    1.000
    C665     C        0.41910    0.20690    0.59400    1.000
    H266     H        0.44090    0.19460    0.59540    1.000
    C666     C        0.40840    0.22590    0.62380    1.000
    C667     C        0.37490    0.24090    0.62170    1.000
    H267     H        0.36530    0.25290    0.64150    1.000
    C668     C        0.41420    0.18520    0.53060    1.000
    C669     C        0.43420    0.15440    0.53160    1.000
    H268     H        0.43740    0.14160    0.55280    1.000
    C670     C        0.23280    0.18470    0.58830    1.000
    C671     C        0.22730    0.14600    0.59210    1.000
    C672     C        0.23190    0.12670    0.62290    1.000
    H269     H        0.24220    0.13770    0.64290    1.000
    C673     C        0.22180    0.09150    0.62490    1.000
    C674     C        0.20650    0.07650    0.59510    1.000
    H270     H        0.19920    0.05250    0.59600    1.000
    C675     C        0.20130    0.09510    0.56390    1.000
    C676     C        0.20800    0.13110    0.56240    1.000
    H271     H        0.20360    0.14470    0.53970    1.000
    C677     C        0.18830    0.07900    0.52920    1.000
    C678     C        0.17450    0.04510    0.53010    1.000
    H272     H        0.17740    0.03020    0.54990    1.000
    C679     C        0.22820    0.06940    0.65750    1.000
    C680     C        0.42210    0.22430    0.65950    1.000
    O306     O        0.23210    0.26890    0.52810    1.000
    Gd35     Gd       0.74423    0.24384    0.91137    1.000
    O307     O        0.79890    0.24260    0.88280    1.000
    O308     O        0.79830    0.25520    0.93910    1.000
    O309     O        0.74080    0.29960    0.88340    1.000
    O310     O        0.73360    0.29970    0.94010    1.000
    O311     O        0.73870    0.41210    0.81860    1.000
    O312     O        0.72300    0.46210    0.84240    1.000
    O313     O        0.91310    0.25420    0.81860    1.000
    O314     O        0.94230    0.29950    0.83500    1.000
    C681     C        0.81690    0.25240    0.91120    1.000
    C682     C        0.85560    0.26150    0.90940    1.000
    C683     C        0.86640    0.28080    0.93910    1.000
    H273     H        0.85170    0.28360    0.95920    1.000
    C684     C        0.90020    0.29560    0.93750    1.000
    C685     C        0.91910    0.29310    0.90600    1.000
    H274     H        0.94090    0.30540    0.90460    1.000
    C686     C        0.90840    0.27410    0.87620    1.000
    C687     C        0.87490    0.25910    0.87830    1.000
    H275     H        0.86530    0.24710    0.85850    1.000
    C688     C        0.91420    0.31480    0.96940    1.000
    C689     C        0.93420    0.34560    0.96840    1.000
    H276     H        0.93740    0.35840    0.94720    1.000
    C690     C        0.73280    0.31530    0.91170    1.000
    C691     C        0.72730    0.35400    0.90790    1.000
    C692     C        0.73190    0.37330    0.87710    1.000
    H277     H        0.74220    0.36230    0.85710    1.000
    C693     C        0.72180    0.40850    0.87510    1.000
    C694     C        0.70650    0.42350    0.90490    1.000
    H278     H        0.69920    0.44750    0.90400    1.000
    C695     C        0.70130    0.40490    0.93610    1.000
    C696     C        0.70800    0.36890    0.93760    1.000
    H279     H        0.70360    0.35530    0.96030    1.000
    C697     C        0.68830    0.42100    0.97080    1.000
    C698     C        0.67450    0.45490    0.96990    1.000
    H280     H        0.67740    0.46980    0.95010    1.000
    C699     C        0.72820    0.43060    0.84250    1.000
    C700     C        0.92210    0.27570    0.84050    1.000
    O315     O        0.73210    0.23110    0.97190    1.000
    Gd36     Gd       0.24423    0.74384    0.41137    1.000
    O316     O        0.29890    0.74260    0.38280    1.000
    O317     O        0.29830    0.75520    0.43910    1.000
    O318     O        0.24080    0.79960    0.38340    1.000
    O319     O        0.23360    0.79970    0.44010    1.000
    O320     O        0.23870    0.91210    0.31860    1.000
    O321     O        0.22300    0.96210    0.34240    1.000
    O322     O        0.41310    0.75420    0.31860    1.000
    O323     O        0.44230    0.79950    0.33500    1.000
    C701     C        0.31690    0.75240    0.41120    1.000
    C702     C        0.35560    0.76150    0.40940    1.000
    C703     C        0.36640    0.78080    0.43910    1.000
    H281     H        0.35170    0.78360    0.45920    1.000
    C704     C        0.40020    0.79560    0.43750    1.000
    C705     C        0.41910    0.79310    0.40600    1.000
    H282     H        0.44090    0.80540    0.40460    1.000
    C706     C        0.40840    0.77410    0.37620    1.000
    C707     C        0.37490    0.75910    0.37830    1.000
    H283     H        0.36530    0.74710    0.35850    1.000
    C708     C        0.41420    0.81480    0.46940    1.000
    C709     C        0.43420    0.84560    0.46840    1.000
    H284     H        0.43740    0.85840    0.44720    1.000
    C710     C        0.23280    0.81530    0.41170    1.000
    C711     C        0.22730    0.85400    0.40790    1.000
    C712     C        0.23190    0.87330    0.37710    1.000
    H285     H        0.24220    0.86230    0.35710    1.000
    C713     C        0.22180    0.90850    0.37510    1.000
    C714     C        0.20650    0.92350    0.40490    1.000
    H286     H        0.19920    0.94750    0.40400    1.000
    C715     C        0.20130    0.90490    0.43610    1.000
    C716     C        0.20800    0.86890    0.43760    1.000
    H287     H        0.20360    0.85530    0.46030    1.000
    C717     C        0.18830    0.92100    0.47080    1.000
    C718     C        0.17450    0.95490    0.46990    1.000
    H288     H        0.17740    0.96980    0.45010    1.000
    C719     C        0.22820    0.93060    0.34250    1.000
    C720     C        0.42210    0.77570    0.34050    1.000
    O324     O        0.23210    0.73110    0.47190    1.000
    Gd37     Gd       0.25577    0.24384    0.08863    1.000
    O325     O        0.20110    0.24260    0.11720    1.000
    O326     O        0.20170    0.25520    0.06090    1.000
    O327     O        0.25920    0.29960    0.11660    1.000
    O328     O        0.26640    0.29970    0.05990    1.000
    O329     O        0.26130    0.41210    0.18140    1.000
    O330     O        0.27700    0.46210    0.15760    1.000
    O331     O        0.08690    0.25420    0.18140    1.000
    O332     O        0.05770    0.29950    0.16500    1.000
    C721     C        0.18310    0.25240    0.08880    1.000
    C722     C        0.14440    0.26150    0.09060    1.000
    C723     C        0.13360    0.28080    0.06090    1.000
    H289     H        0.14830    0.28360    0.04080    1.000
    C724     C        0.09980    0.29560    0.06250    1.000
    C725     C        0.08090    0.29310    0.09400    1.000
    H290     H        0.05910    0.30540    0.09540    1.000
    C726     C        0.09160    0.27410    0.12380    1.000
    C727     C        0.12510    0.25910    0.12170    1.000
    H291     H        0.13470    0.24710    0.14150    1.000
    C728     C        0.08580    0.31480    0.03060    1.000
    C729     C        0.06580    0.34560    0.03160    1.000
    H292     H        0.06260    0.35840    0.05280    1.000
    C730     C        0.26720    0.31530    0.08830    1.000
    C731     C        0.27270    0.35400    0.09210    1.000
    C732     C        0.26810    0.37330    0.12290    1.000
    H293     H        0.25780    0.36230    0.14290    1.000
    C733     C        0.27820    0.40850    0.12490    1.000
    C734     C        0.29350    0.42350    0.09510    1.000
    H294     H        0.30080    0.44750    0.09600    1.000
    C735     C        0.29870    0.40490    0.06390    1.000
    C736     C        0.29200    0.36890    0.06240    1.000
    H295     H        0.29640    0.35530    0.03970    1.000
    C737     C        0.31170    0.42100    0.02920    1.000
    C738     C        0.32550    0.45490    0.03010    1.000
    H296     H        0.32260    0.46980    0.04990    1.000
    C739     C        0.27180    0.43060    0.15750    1.000
    C740     C        0.07790    0.27570    0.15950    1.000
    O333     O        0.26790    0.23110    0.02810    1.000
    Gd38     Gd       0.75577    0.74384    0.58863    1.000
    O334     O        0.70110    0.74260    0.61720    1.000
    O335     O        0.70170    0.75520    0.56090    1.000
    O336     O        0.75920    0.79960    0.61660    1.000
    O337     O        0.76640    0.79970    0.55990    1.000
    O338     O        0.76130    0.91210    0.68140    1.000
    O339     O        0.77700    0.96210    0.65760    1.000
    O340     O        0.58690    0.75420    0.68140    1.000
    O341     O        0.55770    0.79950    0.66500    1.000
    C741     C        0.68310    0.75240    0.58880    1.000
    C742     C        0.64440    0.76150    0.59060    1.000
    C743     C        0.63360    0.78080    0.56090    1.000
    H297     H        0.64830    0.78360    0.54080    1.000
    C744     C        0.59980    0.79560    0.56250    1.000
    C745     C        0.58090    0.79310    0.59400    1.000
    H298     H        0.55910    0.80540    0.59540    1.000
    C746     C        0.59160    0.77410    0.62380    1.000
    C747     C        0.62510    0.75910    0.62170    1.000
    H299     H        0.63470    0.74710    0.64150    1.000
    C748     C        0.58580    0.81480    0.53060    1.000
    C749     C        0.56580    0.84560    0.53160    1.000
    H300     H        0.56260    0.85840    0.55280    1.000
    C750     C        0.76720    0.81530    0.58830    1.000
    C751     C        0.77270    0.85400    0.59210    1.000
    C752     C        0.76810    0.87330    0.62290    1.000
    H301     H        0.75780    0.86230    0.64290    1.000
    C753     C        0.77820    0.90850    0.62490    1.000
    C754     C        0.79350    0.92350    0.59510    1.000
    H302     H        0.80080    0.94750    0.59600    1.000
    C755     C        0.79870    0.90490    0.56390    1.000
    C756     C        0.79200    0.86890    0.56240    1.000
    H303     H        0.79640    0.85530    0.53970    1.000
    C757     C        0.81170    0.92100    0.52920    1.000
    C758     C        0.82550    0.95490    0.53010    1.000
    H304     H        0.82260    0.96980    0.54990    1.000
    C759     C        0.77180    0.93060    0.65750    1.000
    C760     C        0.57790    0.77570    0.65950    1.000
    O342     O        0.76790    0.73110    0.52810    1.000
    Gd39     Gd       0.25577    0.75616    0.91137    1.000
    O343     O        0.20110    0.75740    0.88280    1.000
    O344     O        0.20170    0.74480    0.93910    1.000
    O345     O        0.25920    0.70040    0.88340    1.000
    O346     O        0.26640    0.70030    0.94010    1.000
    O347     O        0.26130    0.58790    0.81860    1.000
    O348     O        0.27700    0.53790    0.84240    1.000
    O349     O        0.08690    0.74580    0.81860    1.000
    O350     O        0.05770    0.70050    0.83500    1.000
    C761     C        0.18310    0.74760    0.91120    1.000
    C762     C        0.14440    0.73850    0.90940    1.000
    C763     C        0.13360    0.71920    0.93910    1.000
    H305     H        0.14830    0.71640    0.95920    1.000
    C764     C        0.09980    0.70440    0.93750    1.000
    C765     C        0.08090    0.70690    0.90600    1.000
    H306     H        0.05910    0.69460    0.90460    1.000
    C766     C        0.09160    0.72590    0.87620    1.000
    C767     C        0.12510    0.74090    0.87830    1.000
    H307     H        0.13470    0.75290    0.85850    1.000
    C768     C        0.08580    0.68520    0.96940    1.000
    C769     C        0.06580    0.65440    0.96840    1.000
    H308     H        0.06260    0.64160    0.94720    1.000
    C770     C        0.26720    0.68470    0.91170    1.000
    C771     C        0.27270    0.64600    0.90790    1.000
    C772     C        0.26810    0.62670    0.87710    1.000
    H309     H        0.25780    0.63770    0.85710    1.000
    C773     C        0.27820    0.59150    0.87510    1.000
    C774     C        0.29350    0.57650    0.90490    1.000
    H310     H        0.30080    0.55250    0.90400    1.000
    C775     C        0.29870    0.59510    0.93610    1.000
    C776     C        0.29200    0.63110    0.93760    1.000
    H311     H        0.29640    0.64470    0.96030    1.000
    C777     C        0.31170    0.57900    0.97080    1.000
    C778     C        0.32550    0.54510    0.96990    1.000
    H312     H        0.32260    0.53020    0.95010    1.000
    C779     C        0.27180    0.56940    0.84250    1.000
    C780     C        0.07790    0.72430    0.84050    1.000
    O351     O        0.26790    0.76890    0.97190    1.000
    Gd40     Gd       0.75577    0.25616    0.41137    1.000
    O352     O        0.70110    0.25740    0.38280    1.000
    O353     O        0.70170    0.24480    0.43910    1.000
    O354     O        0.75920    0.20040    0.38340    1.000
    O355     O        0.76640    0.20030    0.44010    1.000
    O356     O        0.76130    0.08790    0.31860    1.000
    O357     O        0.77700    0.03790    0.34240    1.000
    O358     O        0.58690    0.24580    0.31860    1.000
    O359     O        0.55770    0.20050    0.33500    1.000
    C781     C        0.68310    0.24760    0.41120    1.000
    C782     C        0.64440    0.23850    0.40940    1.000
    C783     C        0.63360    0.21920    0.43910    1.000
    H313     H        0.64830    0.21640    0.45920    1.000
    C784     C        0.59980    0.20440    0.43750    1.000
    C785     C        0.58090    0.20690    0.40600    1.000
    H314     H        0.55910    0.19460    0.40460    1.000
    C786     C        0.59160    0.22590    0.37620    1.000
    C787     C        0.62510    0.24090    0.37830    1.000
    H315     H        0.63470    0.25290    0.35850    1.000
    C788     C        0.58580    0.18520    0.46940    1.000
    C789     C        0.56580    0.15440    0.46840    1.000
    H316     H        0.56260    0.14160    0.44720    1.000
    C790     C        0.76720    0.18470    0.41170    1.000
    C791     C        0.77270    0.14600    0.40790    1.000
    C792     C        0.76810    0.12670    0.37710    1.000
    H317     H        0.75780    0.13770    0.35710    1.000
    C793     C        0.77820    0.09150    0.37510    1.000
    C794     C        0.79350    0.07650    0.40490    1.000
    H318     H        0.80080    0.05250    0.40400    1.000
    C795     C        0.79870    0.09510    0.43610    1.000
    C796     C        0.79200    0.13110    0.43760    1.000
    H319     H        0.79640    0.14470    0.46030    1.000
    C797     C        0.81170    0.07900    0.47080    1.000
    C798     C        0.82550    0.04510    0.46990    1.000
    H320     H        0.82260    0.03020    0.45010    1.000
    C799     C        0.77180    0.06940    0.34250    1.000
    C800     C        0.57790    0.22430    0.34050    1.000
    O360     O        0.76790    0.26890    0.47190    1.000
    Gd41     Gd       0.08863    0.74423    0.75616    1.000
    O361     O        0.11720    0.79890    0.75740    1.000
    O362     O        0.06090    0.79830    0.74480    1.000
    O363     O        0.11660    0.74080    0.70040    1.000
    O364     O        0.05990    0.73360    0.70030    1.000
    O365     O        0.18140    0.73870    0.58790    1.000
    O366     O        0.15760    0.72300    0.53790    1.000
    O367     O        0.18140    0.91310    0.74580    1.000
    O368     O        0.16500    0.94230    0.70050    1.000
    C801     C        0.08880    0.81690    0.74760    1.000
    C802     C        0.09060    0.85560    0.73850    1.000
    C803     C        0.06090    0.86640    0.71920    1.000
    H321     H        0.04080    0.85170    0.71640    1.000
    C804     C        0.06250    0.90020    0.70440    1.000
    C805     C        0.09400    0.91910    0.70690    1.000
    H322     H        0.09540    0.94090    0.69460    1.000
    C806     C        0.12380    0.90840    0.72590    1.000
    C807     C        0.12170    0.87490    0.74090    1.000
    H323     H        0.14150    0.86530    0.75290    1.000
    C808     C        0.03060    0.91420    0.68520    1.000
    C809     C        0.03160    0.93420    0.65440    1.000
    H324     H        0.05280    0.93740    0.64160    1.000
    C810     C        0.08830    0.73280    0.68470    1.000
    C811     C        0.09210    0.72730    0.64600    1.000
    C812     C        0.12290    0.73190    0.62670    1.000
    H325     H        0.14290    0.74220    0.63770    1.000
    C813     C        0.12490    0.72180    0.59150    1.000
    C814     C        0.09510    0.70650    0.57650    1.000
    H326     H        0.09600    0.69920    0.55250    1.000
    C815     C        0.06390    0.70130    0.59510    1.000
    C816     C        0.06240    0.70800    0.63110    1.000
    H327     H        0.03970    0.70360    0.64470    1.000
    C817     C        0.02920    0.68830    0.57900    1.000
    C818     C        0.03010    0.67450    0.54510    1.000
    H328     H        0.04990    0.67740    0.53020    1.000
    C819     C        0.15750    0.72820    0.56940    1.000
    C820     C        0.15950    0.92210    0.72430    1.000
    O369     O        0.02810    0.73210    0.76890    1.000
    Gd42     Gd       0.58863    0.24423    0.25616    1.000
    O370     O        0.61720    0.29890    0.25740    1.000
    O371     O        0.56090    0.29830    0.24480    1.000
    O372     O        0.61660    0.24080    0.20040    1.000
    O373     O        0.55990    0.23360    0.20030    1.000
    O374     O        0.68140    0.23870    0.08790    1.000
    O375     O        0.65760    0.22300    0.03790    1.000
    O376     O        0.68140    0.41310    0.24580    1.000
    O377     O        0.66500    0.44230    0.20050    1.000
    C821     C        0.58880    0.31690    0.24760    1.000
    C822     C        0.59060    0.35560    0.23850    1.000
    C823     C        0.56090    0.36640    0.21920    1.000
    H329     H        0.54080    0.35170    0.21640    1.000
    C824     C        0.56250    0.40020    0.20440    1.000
    C825     C        0.59400    0.41910    0.20690    1.000
    H330     H        0.59540    0.44090    0.19460    1.000
    C826     C        0.62380    0.40840    0.22590    1.000
    C827     C        0.62170    0.37490    0.24090    1.000
    H331     H        0.64150    0.36530    0.25290    1.000
    C828     C        0.53060    0.41420    0.18520    1.000
    C829     C        0.53160    0.43420    0.15440    1.000
    H332     H        0.55280    0.43740    0.14160    1.000
    C830     C        0.58830    0.23280    0.18470    1.000
    C831     C        0.59210    0.22730    0.14600    1.000
    C832     C        0.62290    0.23190    0.12670    1.000
    H333     H        0.64290    0.24220    0.13770    1.000
    C833     C        0.62490    0.22180    0.09150    1.000
    C834     C        0.59510    0.20650    0.07650    1.000
    H334     H        0.59600    0.19920    0.05250    1.000
    C835     C        0.56390    0.20130    0.09510    1.000
    C836     C        0.56240    0.20800    0.13110    1.000
    H335     H        0.53970    0.20360    0.14470    1.000
    C837     C        0.52920    0.18830    0.07900    1.000
    C838     C        0.53010    0.17450    0.04510    1.000
    H336     H        0.54990    0.17740    0.03020    1.000
    C839     C        0.65750    0.22820    0.06940    1.000
    C840     C        0.65950    0.42210    0.22430    1.000
    O378     O        0.52810    0.23210    0.26890    1.000
    Gd43     Gd       0.91137    0.74423    0.24384    1.000
    O379     O        0.88280    0.79890    0.24260    1.000
    O380     O        0.93910    0.79830    0.25520    1.000
    O381     O        0.88340    0.74080    0.29960    1.000
    O382     O        0.94010    0.73360    0.29970    1.000
    O383     O        0.81860    0.73870    0.41210    1.000
    O384     O        0.84240    0.72300    0.46210    1.000
    O385     O        0.81860    0.91310    0.25420    1.000
    O386     O        0.83500    0.94230    0.29950    1.000
    C841     C        0.91120    0.81690    0.25240    1.000
    C842     C        0.90940    0.85560    0.26150    1.000
    C843     C        0.93910    0.86640    0.28080    1.000
    H337     H        0.95920    0.85170    0.28360    1.000
    C844     C        0.93750    0.90020    0.29560    1.000
    C845     C        0.90600    0.91910    0.29310    1.000
    H338     H        0.90460    0.94090    0.30540    1.000
    C846     C        0.87620    0.90840    0.27410    1.000
    C847     C        0.87830    0.87490    0.25910    1.000
    H339     H        0.85850    0.86530    0.24710    1.000
    C848     C        0.96940    0.91420    0.31480    1.000
    C849     C        0.96840    0.93420    0.34560    1.000
    H340     H        0.94720    0.93740    0.35840    1.000
    C850     C        0.91170    0.73280    0.31530    1.000
    C851     C        0.90790    0.72730    0.35400    1.000
    C852     C        0.87710    0.73190    0.37330    1.000
    H341     H        0.85710    0.74220    0.36230    1.000
    C853     C        0.87510    0.72180    0.40850    1.000
    C854     C        0.90490    0.70650    0.42350    1.000
    H342     H        0.90400    0.69920    0.44750    1.000
    C855     C        0.93610    0.70130    0.40490    1.000
    C856     C        0.93760    0.70800    0.36890    1.000
    H343     H        0.96030    0.70360    0.35530    1.000
    C857     C        0.97080    0.68830    0.42100    1.000
    C858     C        0.96990    0.67450    0.45490    1.000
    H344     H        0.95010    0.67740    0.46980    1.000
    C859     C        0.84250    0.72820    0.43060    1.000
    C860     C        0.84050    0.92210    0.27570    1.000
    O387     O        0.97190    0.73210    0.23110    1.000
    Gd44     Gd       0.41137    0.24423    0.74384    1.000
    O388     O        0.38280    0.29890    0.74260    1.000
    O389     O        0.43910    0.29830    0.75520    1.000
    O390     O        0.38340    0.24080    0.79960    1.000
    O391     O        0.44010    0.23360    0.79970    1.000
    O392     O        0.31860    0.23870    0.91210    1.000
    O393     O        0.34240    0.22300    0.96210    1.000
    O394     O        0.31860    0.41310    0.75420    1.000
    O395     O        0.33500    0.44230    0.79950    1.000
    C861     C        0.41120    0.31690    0.75240    1.000
    C862     C        0.40940    0.35560    0.76150    1.000
    C863     C        0.43910    0.36640    0.78080    1.000
    H345     H        0.45920    0.35170    0.78360    1.000
    C864     C        0.43750    0.40020    0.79560    1.000
    C865     C        0.40600    0.41910    0.79310    1.000
    H346     H        0.40460    0.44090    0.80540    1.000
    C866     C        0.37620    0.40840    0.77410    1.000
    C867     C        0.37830    0.37490    0.75910    1.000
    H347     H        0.35850    0.36530    0.74710    1.000
    C868     C        0.46940    0.41420    0.81480    1.000
    C869     C        0.46840    0.43420    0.84560    1.000
    H348     H        0.44720    0.43740    0.85840    1.000
    C870     C        0.41170    0.23280    0.81530    1.000
    C871     C        0.40790    0.22730    0.85400    1.000
    C872     C        0.37710    0.23190    0.87330    1.000
    H349     H        0.35710    0.24220    0.86230    1.000
    C873     C        0.37510    0.22180    0.90850    1.000
    C874     C        0.40490    0.20650    0.92350    1.000
    H350     H        0.40400    0.19920    0.94750    1.000
    C875     C        0.43610    0.20130    0.90490    1.000
    C876     C        0.43760    0.20800    0.86890    1.000
    H351     H        0.46030    0.20360    0.85530    1.000
    C877     C        0.47080    0.18830    0.92100    1.000
    C878     C        0.46990    0.17450    0.95490    1.000
    H352     H        0.45010    0.17740    0.96980    1.000
    C879     C        0.34250    0.22820    0.93060    1.000
    C880     C        0.34050    0.42210    0.77570    1.000
    O396     O        0.47190    0.23210    0.73110    1.000
    Gd45     Gd       0.08863    0.25577    0.24384    1.000
    O397     O        0.11720    0.20110    0.24260    1.000
    O398     O        0.06090    0.20170    0.25520    1.000
    O399     O        0.11660    0.25920    0.29960    1.000
    O400     O        0.05990    0.26640    0.29970    1.000
    O401     O        0.18140    0.26130    0.41210    1.000
    O402     O        0.15760    0.27700    0.46210    1.000
    O403     O        0.18140    0.08690    0.25420    1.000
    O404     O        0.16500    0.05770    0.29950    1.000
    C881     C        0.08880    0.18310    0.25240    1.000
    C882     C        0.09060    0.14440    0.26150    1.000
    C883     C        0.06090    0.13360    0.28080    1.000
    H353     H        0.04080    0.14830    0.28360    1.000
    C884     C        0.06250    0.09980    0.29560    1.000
    C885     C        0.09400    0.08090    0.29310    1.000
    H354     H        0.09540    0.05910    0.30540    1.000
    C886     C        0.12380    0.09160    0.27410    1.000
    C887     C        0.12170    0.12510    0.25910    1.000
    H355     H        0.14150    0.13470    0.24710    1.000
    C888     C        0.03060    0.08580    0.31480    1.000
    C889     C        0.03160    0.06580    0.34560    1.000
    H356     H        0.05280    0.06260    0.35840    1.000
    C890     C        0.08830    0.26720    0.31530    1.000
    C891     C        0.09210    0.27270    0.35400    1.000
    C892     C        0.12290    0.26810    0.37330    1.000
    H357     H        0.14290    0.25780    0.36230    1.000
    C893     C        0.12490    0.27820    0.40850    1.000
    C894     C        0.09510    0.29350    0.42350    1.000
    H358     H        0.09600    0.30080    0.44750    1.000
    C895     C        0.06390    0.29870    0.40490    1.000
    C896     C        0.06240    0.29200    0.36890    1.000
    H359     H        0.03970    0.29640    0.35530    1.000
    C897     C        0.02920    0.31170    0.42100    1.000
    C898     C        0.03010    0.32550    0.45490    1.000
    H360     H        0.04990    0.32260    0.46980    1.000
    C899     C        0.15750    0.27180    0.43060    1.000
    C900     C        0.15950    0.07790    0.27570    1.000
    O405     O        0.02810    0.26790    0.23110    1.000
    Gd46     Gd       0.58863    0.75577    0.74384    1.000
    O406     O        0.61720    0.70110    0.74260    1.000
    O407     O        0.56090    0.70170    0.75520    1.000
    O408     O        0.61660    0.75920    0.79960    1.000
    O409     O        0.55990    0.76640    0.79970    1.000
    O410     O        0.68140    0.76130    0.91210    1.000
    O411     O        0.65760    0.77700    0.96210    1.000
    O412     O        0.68140    0.58690    0.75420    1.000
    O413     O        0.66500    0.55770    0.79950    1.000
    C901     C        0.58880    0.68310    0.75240    1.000
    C902     C        0.59060    0.64440    0.76150    1.000
    C903     C        0.56090    0.63360    0.78080    1.000
    H361     H        0.54080    0.64830    0.78360    1.000
    C904     C        0.56250    0.59980    0.79560    1.000
    C905     C        0.59400    0.58090    0.79310    1.000
    H362     H        0.59540    0.55910    0.80540    1.000
    C906     C        0.62380    0.59160    0.77410    1.000
    C907     C        0.62170    0.62510    0.75910    1.000
    H363     H        0.64150    0.63470    0.74710    1.000
    C908     C        0.53060    0.58580    0.81480    1.000
    C909     C        0.53160    0.56580    0.84560    1.000
    H364     H        0.55280    0.56260    0.85840    1.000
    C910     C        0.58830    0.76720    0.81530    1.000
    C911     C        0.59210    0.77270    0.85400    1.000
    C912     C        0.62290    0.76810    0.87330    1.000
    H365     H        0.64290    0.75780    0.86230    1.000
    C913     C        0.62490    0.77820    0.90850    1.000
    C914     C        0.59510    0.79350    0.92350    1.000
    H366     H        0.59600    0.80080    0.94750    1.000
    C915     C        0.56390    0.79870    0.90490    1.000
    C916     C        0.56240    0.79200    0.86890    1.000
    H367     H        0.53970    0.79640    0.85530    1.000
    C917     C        0.52920    0.81170    0.92100    1.000
    C918     C        0.53010    0.82550    0.95490    1.000
    H368     H        0.54990    0.82260    0.96980    1.000
    C919     C        0.65750    0.77180    0.93060    1.000
    C920     C        0.65950    0.57790    0.77570    1.000
    O414     O        0.52810    0.76790    0.73110    1.000
    Gd47     Gd       0.91137    0.25577    0.75616    1.000
    O415     O        0.88280    0.20110    0.75740    1.000
    O416     O        0.93910    0.20170    0.74480    1.000
    O417     O        0.88340    0.25920    0.70040    1.000
    O418     O        0.94010    0.26640    0.70030    1.000
    O419     O        0.81860    0.26130    0.58790    1.000
    O420     O        0.84240    0.27700    0.53790    1.000
    O421     O        0.81860    0.08690    0.74580    1.000
    O422     O        0.83500    0.05770    0.70050    1.000
    C921     C        0.91120    0.18310    0.74760    1.000
    C922     C        0.90940    0.14440    0.73850    1.000
    C923     C        0.93910    0.13360    0.71920    1.000
    H369     H        0.95920    0.14830    0.71640    1.000
    C924     C        0.93750    0.09980    0.70440    1.000
    C925     C        0.90600    0.08090    0.70690    1.000
    H370     H        0.90460    0.05910    0.69460    1.000
    C926     C        0.87620    0.09160    0.72590    1.000
    C927     C        0.87830    0.12510    0.74090    1.000
    H371     H        0.85850    0.13470    0.75290    1.000
    C928     C        0.96940    0.08580    0.68520    1.000
    C929     C        0.96840    0.06580    0.65440    1.000
    H372     H        0.94720    0.06260    0.64160    1.000
    C930     C        0.91170    0.26720    0.68470    1.000
    C931     C        0.90790    0.27270    0.64600    1.000
    C932     C        0.87710    0.26810    0.62670    1.000
    H373     H        0.85710    0.25780    0.63770    1.000
    C933     C        0.87510    0.27820    0.59150    1.000
    C934     C        0.90490    0.29350    0.57650    1.000
    H374     H        0.90400    0.30080    0.55250    1.000
    C935     C        0.93610    0.29870    0.59510    1.000
    C936     C        0.93760    0.29200    0.63110    1.000
    H375     H        0.96030    0.29640    0.64470    1.000
    C937     C        0.97080    0.31170    0.57900    1.000
    C938     C        0.96990    0.32550    0.54510    1.000
    H376     H        0.95010    0.32260    0.53020    1.000
    C939     C        0.84250    0.27180    0.56940    1.000
    C940     C        0.84050    0.07790    0.72430    1.000
    O423     O        0.97190    0.26790    0.76890    1.000
    Gd48     Gd       0.41137    0.75577    0.25616    1.000
    O424     O        0.38280    0.70110    0.25740    1.000
    O425     O        0.43910    0.70170    0.24480    1.000
    O426     O        0.38340    0.75920    0.20040    1.000
    O427     O        0.44010    0.76640    0.20030    1.000
    O428     O        0.31860    0.76130    0.08790    1.000
    O429     O        0.34240    0.77700    0.03790    1.000
    O430     O        0.31860    0.58690    0.24580    1.000
    O431     O        0.33500    0.55770    0.20050    1.000
    C941     C        0.41120    0.68310    0.24760    1.000
    C942     C        0.40940    0.64440    0.23850    1.000
    C943     C        0.43910    0.63360    0.21920    1.000
    H377     H        0.45920    0.64830    0.21640    1.000
    C944     C        0.43750    0.59980    0.20440    1.000
    C945     C        0.40600    0.58090    0.20690    1.000
    H378     H        0.40460    0.55910    0.19460    1.000
    C946     C        0.37620    0.59160    0.22590    1.000
    C947     C        0.37830    0.62510    0.24090    1.000
    H379     H        0.35850    0.63470    0.25290    1.000
    C948     C        0.46940    0.58580    0.18520    1.000
    C949     C        0.46840    0.56580    0.15440    1.000
    H380     H        0.44720    0.56260    0.14160    1.000
    C950     C        0.41170    0.76720    0.18470    1.000
    C951     C        0.40790    0.77270    0.14600    1.000
    C952     C        0.37710    0.76810    0.12670    1.000
    H381     H        0.35710    0.75780    0.13770    1.000
    C953     C        0.37510    0.77820    0.09150    1.000
    C954     C        0.40490    0.79350    0.07650    1.000
    H382     H        0.40400    0.80080    0.05250    1.000
    C955     C        0.43610    0.79870    0.09510    1.000
    C956     C        0.43760    0.79200    0.13110    1.000
    H383     H        0.46030    0.79640    0.14470    1.000
    C957     C        0.47080    0.81170    0.07900    1.000
    C958     C        0.46990    0.82550    0.04510    1.000
    H384     H        0.45010    0.82260    0.03020    1.000
    C959     C        0.34250    0.77180    0.06940    1.000
    C960     C        0.34050    0.57790    0.22430    1.000
    O432     O        0.47190    0.76790    0.26890    1.000
    Gd49     Gd       0.18663    0.00000    0.30957    1.000
    O433     O        0.12470    0.00000    0.33720    1.000
    O434     O        0.15860    0.00000    0.37090    1.000
    C961     C        0.35670    0.00000    0.05060    1.000
    H385     H        0.37160    0.00000    0.03050    1.000
    C962     C        0.46920    0.00000    0.34090    1.000
    H386     H        0.48810    0.00000    0.35730    1.000
    C963     C        0.24210    0.00000    0.25500    1.000
    H387     H        0.25870    0.00000    0.23620    1.000
    N1       N        0.30010    0.00000    0.09700    1.000
    N2       N        0.40120    0.00000    0.31030    1.000
    C964     C        0.12690    0.00000    0.37110    1.000
    H388     H        0.10980    0.00000    0.38940    1.000
    Gd50     Gd       0.68663    0.50000    0.80957    1.000
    O435     O        0.62470    0.50000    0.83720    1.000
    O436     O        0.65860    0.50000    0.87090    1.000
    C965     C        0.85670    0.50000    0.55060    1.000
    H389     H        0.87160    0.50000    0.53050    1.000
    C966     C        0.96920    0.50000    0.84090    1.000
    H390     H        0.98810    0.50000    0.85730    1.000
    C967     C        0.74210    0.50000    0.75500    1.000
    H391     H        0.75870    0.50000    0.73620    1.000
    N3       N        0.80010    0.50000    0.59700    1.000
    N4       N        0.90120    0.50000    0.81030    1.000
    C968     C        0.62690    0.50000    0.87110    1.000
    H392     H        0.60980    0.50000    0.88940    1.000
    Gd51     Gd       0.81337    0.00000    0.30957    1.000
    O437     O        0.87530    0.00000    0.33720    1.000
    O438     O        0.84140    0.00000    0.37090    1.000
    C969     C        0.64330    0.00000    0.05060    1.000
    H393     H        0.62840    0.00000    0.03050    1.000
    C970     C        0.53080    0.00000    0.34090    1.000
    H394     H        0.51190    0.00000    0.35730    1.000
    C971     C        0.75790    0.00000    0.25500    1.000
    H395     H        0.74130    0.00000    0.23620    1.000
    N5       N        0.69990    0.00000    0.09700    1.000
    N6       N        0.59880    0.00000    0.31030    1.000
    C972     C        0.87310    0.00000    0.37110    1.000
    H396     H        0.89020    0.00000    0.38940    1.000
    Gd52     Gd       0.31337    0.50000    0.80957    1.000
    O439     O        0.37530    0.50000    0.83720    1.000
    O440     O        0.34140    0.50000    0.87090    1.000
    C973     C        0.14330    0.50000    0.55060    1.000
    H397     H        0.12840    0.50000    0.53050    1.000
    C974     C        0.03080    0.50000    0.84090    1.000
    H398     H        0.01190    0.50000    0.85730    1.000
    C975     C        0.25790    0.50000    0.75500    1.000
    H399     H        0.24130    0.50000    0.73620    1.000
    N7       N        0.19990    0.50000    0.59700    1.000
    N8       N        0.09880    0.50000    0.81030    1.000
    C976     C        0.37310    0.50000    0.87110    1.000
    H400     H        0.39020    0.50000    0.88940    1.000
    Gd53     Gd       0.81337    0.00000    0.69043    1.000
    O441     O        0.87530    0.00000    0.66280    1.000
    O442     O        0.84140    0.00000    0.62910    1.000
    C977     C        0.64330    0.00000    0.94940    1.000
    H401     H        0.62840    0.00000    0.96950    1.000
    C978     C        0.53080    0.00000    0.65910    1.000
    H402     H        0.51190    0.00000    0.64270    1.000
    C979     C        0.75790    0.00000    0.74500    1.000
    H403     H        0.74130    0.00000    0.76380    1.000
    N9       N        0.69990    0.00000    0.90300    1.000
    N10      N        0.59880    0.00000    0.68970    1.000
    C980     C        0.87310    0.00000    0.62890    1.000
    H404     H        0.89020    0.00000    0.61060    1.000
    Gd54     Gd       0.31337    0.50000    0.19043    1.000
    O443     O        0.37530    0.50000    0.16280    1.000
    O444     O        0.34140    0.50000    0.12910    1.000
    C981     C        0.14330    0.50000    0.44940    1.000
    H405     H        0.12840    0.50000    0.46950    1.000
    C982     C        0.03080    0.50000    0.15910    1.000
    H406     H        0.01190    0.50000    0.14270    1.000
    C983     C        0.25790    0.50000    0.24500    1.000
    H407     H        0.24130    0.50000    0.26380    1.000
    N11      N        0.19990    0.50000    0.40300    1.000
    N12      N        0.09880    0.50000    0.18970    1.000
    C984     C        0.37310    0.50000    0.12890    1.000
    H408     H        0.39020    0.50000    0.11060    1.000
    Gd55     Gd       0.18663    0.00000    0.69043    1.000
    O445     O        0.12470    0.00000    0.66280    1.000
    O446     O        0.15860    0.00000    0.62910    1.000
    C985     C        0.35670    0.00000    0.94940    1.000
    H409     H        0.37160    0.00000    0.96950    1.000
    C986     C        0.46920    0.00000    0.65910    1.000
    H410     H        0.48810    0.00000    0.64270    1.000
    C987     C        0.24210    0.00000    0.74500    1.000
    H411     H        0.25870    0.00000    0.76380    1.000
    N13      N        0.30010    0.00000    0.90300    1.000
    N14      N        0.40120    0.00000    0.68970    1.000
    C988     C        0.12690    0.00000    0.62890    1.000
    H412     H        0.10980    0.00000    0.61060    1.000
    Gd56     Gd       0.68663    0.50000    0.19043    1.000
    O447     O        0.62470    0.50000    0.16280    1.000
    O448     O        0.65860    0.50000    0.12910    1.000
    C989     C        0.85670    0.50000    0.44940    1.000
    H413     H        0.87160    0.50000    0.46950    1.000
    C990     C        0.96920    0.50000    0.15910    1.000
    H414     H        0.98810    0.50000    0.14270    1.000
    C991     C        0.74210    0.50000    0.24500    1.000
    H415     H        0.75870    0.50000    0.26380    1.000
    N15      N        0.80010    0.50000    0.40300    1.000
    N16      N        0.90120    0.50000    0.18970    1.000
    C992     C        0.62690    0.50000    0.12890    1.000
    H416     H        0.60980    0.50000    0.11060    1.000
    Gd57     Gd       0.30957    0.18663    0.00000    1.000
    O449     O        0.33720    0.12470    0.00000    1.000
    O450     O        0.37090    0.15860    0.00000    1.000
    C993     C        0.05060    0.35670    0.00000    1.000
    H417     H        0.03050    0.37160    0.00000    1.000
    C994     C        0.34090    0.46920    0.00000    1.000
    H418     H        0.35730    0.48810    0.00000    1.000
    C995     C        0.25500    0.24210    0.00000    1.000
    H419     H        0.23620    0.25870    0.00000    1.000
    N17      N        0.09700    0.30010    0.00000    1.000
    N18      N        0.31030    0.40120    0.00000    1.000
    C996     C        0.37110    0.12690    0.00000    1.000
    H420     H        0.38940    0.10980    0.00000    1.000
    Gd58     Gd       0.80957    0.68663    0.50000    1.000
    O451     O        0.83720    0.62470    0.50000    1.000
    O452     O        0.87090    0.65860    0.50000    1.000
    C997     C        0.55060    0.85670    0.50000    1.000
    H421     H        0.53050    0.87160    0.50000    1.000
    C998     C        0.84090    0.96920    0.50000    1.000
    H422     H        0.85730    0.98810    0.50000    1.000
    C999     C        0.75500    0.74210    0.50000    1.000
    H423     H        0.73620    0.75870    0.50000    1.000
    N19      N        0.59700    0.80010    0.50000    1.000
    N20      N        0.81030    0.90120    0.50000    1.000
    C1000    C        0.87110    0.62690    0.50000    1.000
    H424     H        0.88940    0.60980    0.50000    1.000
    Gd59     Gd       0.30957    0.81337    0.00000    1.000
    O453     O        0.33720    0.87530    0.00000    1.000
    O454     O        0.37090    0.84140    0.00000    1.000
    C1001    C        0.05060    0.64330    0.00000    1.000
    H425     H        0.03050    0.62840    0.00000    1.000
    C1002    C        0.34090    0.53080    0.00000    1.000
    H426     H        0.35730    0.51190    0.00000    1.000
    C1003    C        0.25500    0.75790    0.00000    1.000
    H427     H        0.23620    0.74130    0.00000    1.000
    N21      N        0.09700    0.69990    0.00000    1.000
    N22      N        0.31030    0.59880    0.00000    1.000
    C1004    C        0.37110    0.87310    0.00000    1.000
    H428     H        0.38940    0.89020    0.00000    1.000
    Gd60     Gd       0.80957    0.31337    0.50000    1.000
    O455     O        0.83720    0.37530    0.50000    1.000
    O456     O        0.87090    0.34140    0.50000    1.000
    C1005    C        0.55060    0.14330    0.50000    1.000
    H429     H        0.53050    0.12840    0.50000    1.000
    C1006    C        0.84090    0.03080    0.50000    1.000
    H430     H        0.85730    0.01190    0.50000    1.000
    C1007    C        0.75500    0.25790    0.50000    1.000
    H431     H        0.73620    0.24130    0.50000    1.000
    N23      N        0.59700    0.19990    0.50000    1.000
    N24      N        0.81030    0.09880    0.50000    1.000
    C1008    C        0.87110    0.37310    0.50000    1.000
    H432     H        0.88940    0.39020    0.50000    1.000
    Gd61     Gd       0.69043    0.81337    0.00000    1.000
    O457     O        0.66280    0.87530    0.00000    1.000
    O458     O        0.62910    0.84140    0.00000    1.000
    C1009    C        0.94940    0.64330    0.00000    1.000
    H433     H        0.96950    0.62840    0.00000    1.000
    C1010    C        0.65910    0.53080    0.00000    1.000
    H434     H        0.64270    0.51190    0.00000    1.000
    C1011    C        0.74500    0.75790    0.00000    1.000
    H435     H        0.76380    0.74130    0.00000    1.000
    N25      N        0.90300    0.69990    0.00000    1.000
    N26      N        0.68970    0.59880    0.00000    1.000
    C1012    C        0.62890    0.87310    0.00000    1.000
    H436     H        0.61060    0.89020    0.00000    1.000
    Gd62     Gd       0.19043    0.31337    0.50000    1.000
    O459     O        0.16280    0.37530    0.50000    1.000
    O460     O        0.12910    0.34140    0.50000    1.000
    C1013    C        0.44940    0.14330    0.50000    1.000
    H437     H        0.46950    0.12840    0.50000    1.000
    C1014    C        0.15910    0.03080    0.50000    1.000
    H438     H        0.14270    0.01190    0.50000    1.000
    C1015    C        0.24500    0.25790    0.50000    1.000
    H439     H        0.26380    0.24130    0.50000    1.000
    N27      N        0.40300    0.19990    0.50000    1.000
    N28      N        0.18970    0.09880    0.50000    1.000
    C1016    C        0.12890    0.37310    0.50000    1.000
    H440     H        0.11060    0.39020    0.50000    1.000
    Gd63     Gd       0.69043    0.18663    0.00000    1.000
    O461     O        0.66280    0.12470    0.00000    1.000
    O462     O        0.62910    0.15860    0.00000    1.000
    C1017    C        0.94940    0.35670    0.00000    1.000
    H441     H        0.96950    0.37160    0.00000    1.000
    C1018    C        0.65910    0.46920    0.00000    1.000
    H442     H        0.64270    0.48810    0.00000    1.000
    C1019    C        0.74500    0.24210    0.00000    1.000
    H443     H        0.76380    0.25870    0.00000    1.000
    N29      N        0.90300    0.30010    0.00000    1.000
    N30      N        0.68970    0.40120    0.00000    1.000
    C1020    C        0.62890    0.12690    0.00000    1.000
    H444     H        0.61060    0.10980    0.00000    1.000
    Gd64     Gd       0.19043    0.68663    0.50000    1.000
    O463     O        0.16280    0.62470    0.50000    1.000
    O464     O        0.12910    0.65860    0.50000    1.000
    C1021    C        0.44940    0.85670    0.50000    1.000
    H445     H        0.46950    0.87160    0.50000    1.000
    C1022    C        0.15910    0.96920    0.50000    1.000
    H446     H        0.14270    0.98810    0.50000    1.000
    C1023    C        0.24500    0.74210    0.50000    1.000
    H447     H        0.26380    0.75870    0.50000    1.000
    N31      N        0.40300    0.80010    0.50000    1.000
    N32      N        0.18970    0.90120    0.50000    1.000
    C1024    C        0.12890    0.62690    0.50000    1.000
    H448     H        0.11060    0.60980    0.50000    1.000
    Gd65     Gd       0.00000    0.30957    0.18663    1.000
    O465     O        0.00000    0.33720    0.12470    1.000
    O466     O        0.00000    0.37090    0.15860    1.000
    C1025    C        0.00000    0.05060    0.35670    1.000
    H449     H        0.00000    0.03050    0.37160    1.000
    C1026    C        0.00000    0.34090    0.46920    1.000
    H450     H        0.00000    0.35730    0.48810    1.000
    C1027    C        0.00000    0.25500    0.24210    1.000
    H451     H        0.00000    0.23620    0.25870    1.000
    N33      N        0.00000    0.09700    0.30010    1.000
    N34      N        0.00000    0.31030    0.40120    1.000
    C1028    C        0.00000    0.37110    0.12690    1.000
    H452     H        0.00000    0.38940    0.10980    1.000
    Gd66     Gd       0.50000    0.80957    0.68663    1.000
    O467     O        0.50000    0.83720    0.62470    1.000
    O468     O        0.50000    0.87090    0.65860    1.000
    C1029    C        0.50000    0.55060    0.85670    1.000
    H453     H        0.50000    0.53050    0.87160    1.000
    C1030    C        0.50000    0.84090    0.96920    1.000
    H454     H        0.50000    0.85730    0.98810    1.000
    C1031    C        0.50000    0.75500    0.74210    1.000
    H455     H        0.50000    0.73620    0.75870    1.000
    N35      N        0.50000    0.59700    0.80010    1.000
    N36      N        0.50000    0.81030    0.90120    1.000
    C1032    C        0.50000    0.87110    0.62690    1.000
    H456     H        0.50000    0.88940    0.60980    1.000
    Gd67     Gd       0.00000    0.30957    0.81337    1.000
    O469     O        0.00000    0.33720    0.87530    1.000
    O470     O        0.00000    0.37090    0.84140    1.000
    C1033    C        0.00000    0.05060    0.64330    1.000
    H457     H        0.00000    0.03050    0.62840    1.000
    C1034    C        0.00000    0.34090    0.53080    1.000
    H458     H        0.00000    0.35730    0.51190    1.000
    C1035    C        0.00000    0.25500    0.75790    1.000
    H459     H        0.00000    0.23620    0.74130    1.000
    N37      N        0.00000    0.09700    0.69990    1.000
    N38      N        0.00000    0.31030    0.59880    1.000
    C1036    C        0.00000    0.37110    0.87310    1.000
    H460     H        0.00000    0.38940    0.89020    1.000
    Gd68     Gd       0.50000    0.80957    0.31337    1.000
    O471     O        0.50000    0.83720    0.37530    1.000
    O472     O        0.50000    0.87090    0.34140    1.000
    C1037    C        0.50000    0.55060    0.14330    1.000
    H461     H        0.50000    0.53050    0.12840    1.000
    C1038    C        0.50000    0.84090    0.03080    1.000
    H462     H        0.50000    0.85730    0.01190    1.000
    C1039    C        0.50000    0.75500    0.25790    1.000
    H463     H        0.50000    0.73620    0.24130    1.000
    N39      N        0.50000    0.59700    0.19990    1.000
    N40      N        0.50000    0.81030    0.09880    1.000
    C1040    C        0.50000    0.87110    0.37310    1.000
    H464     H        0.50000    0.88940    0.39020    1.000
    Gd69     Gd       0.00000    0.69043    0.81337    1.000
    O473     O        0.00000    0.66280    0.87530    1.000
    O474     O        0.00000    0.62910    0.84140    1.000
    C1041    C        0.00000    0.94940    0.64330    1.000
    H465     H        0.00000    0.96950    0.62840    1.000
    C1042    C        0.00000    0.65910    0.53080    1.000
    H466     H        0.00000    0.64270    0.51190    1.000
    C1043    C        0.00000    0.74500    0.75790    1.000
    H467     H        0.00000    0.76380    0.74130    1.000
    N41      N        0.00000    0.90300    0.69990    1.000
    N42      N        0.00000    0.68970    0.59880    1.000
    C1044    C        0.00000    0.62890    0.87310    1.000
    H468     H        0.00000    0.61060    0.89020    1.000
    Gd70     Gd       0.50000    0.19043    0.31337    1.000
    O475     O        0.50000    0.16280    0.37530    1.000
    O476     O        0.50000    0.12910    0.34140    1.000
    C1045    C        0.50000    0.44940    0.14330    1.000
    H469     H        0.50000    0.46950    0.12840    1.000
    C1046    C        0.50000    0.15910    0.03080    1.000
    H470     H        0.50000    0.14270    0.01190    1.000
    C1047    C        0.50000    0.24500    0.25790    1.000
    H471     H        0.50000    0.26380    0.24130    1.000
    N43      N        0.50000    0.40300    0.19990    1.000
    N44      N        0.50000    0.18970    0.09880    1.000
    C1048    C        0.50000    0.12890    0.37310    1.000
    H472     H        0.50000    0.11060    0.39020    1.000
    Gd71     Gd       0.00000    0.69043    0.18663    1.000
    O477     O        0.00000    0.66280    0.12470    1.000
    O478     O        0.00000    0.62910    0.15860    1.000
    C1049    C        0.00000    0.94940    0.35670    1.000
    H473     H        0.00000    0.96950    0.37160    1.000
    C1050    C        0.00000    0.65910    0.46920    1.000
    H474     H        0.00000    0.64270    0.48810    1.000
    C1051    C        0.00000    0.74500    0.24210    1.000
    H475     H        0.00000    0.76380    0.25870    1.000
    N45      N        0.00000    0.90300    0.30010    1.000
    N46      N        0.00000    0.68970    0.40120    1.000
    C1052    C        0.00000    0.62890    0.12690    1.000
    H476     H        0.00000    0.61060    0.10980    1.000
    Gd72     Gd       0.50000    0.19043    0.68663    1.000
    O479     O        0.50000    0.16280    0.62470    1.000
    O480     O        0.50000    0.12910    0.65860    1.000
    C1053    C        0.50000    0.44940    0.85670    1.000
    H477     H        0.50000    0.46950    0.87160    1.000
    C1054    C        0.50000    0.15910    0.96920    1.000
    H478     H        0.50000    0.14270    0.98810    1.000
    C1055    C        0.50000    0.24500    0.74210    1.000
    H479     H        0.50000    0.26380    0.75870    1.000
    N47      N        0.50000    0.40300    0.80010    1.000
    N48      N        0.50000    0.18970    0.90120    1.000
    C1056    C        0.50000    0.12890    0.62690    1.000
    H480     H        0.50000    0.11060    0.60980    1.000
