# CIF file generated by openbabel 3.1.0, see https://openbabel.org
data_I
_chemical_name_common 'image0'
_cell_length_a 14.3997
_cell_length_b 23.362
_cell_length_c 15.543
_cell_angle_alpha 90
_cell_angle_beta 106.309
_cell_angle_gamma 90
_space_group_name_H-M_alt 'P 1'
_space_group_name_Hall 'P 1'
loop_
    _symmetry_equiv_pos_as_xyz
    x,y,z
loop_
    _atom_site_label
    _atom_site_type_symbol
    _atom_site_fract_x
    _atom_site_fract_y
    _atom_site_fract_z
    _atom_site_occupancy
    Cd1      Cd       0.25889    0.05907    0.92450    1.000
    C1       C        0.41790    0.89970    0.51540    1.000
    C2       C        0.48110    0.90830    0.59580    1.000
    H1       H        0.47510    0.94180    0.62610    1.000
    C3       C        0.55300    0.87190    0.63620    1.000
    H2       H        0.59420    0.88130    0.69200    1.000
    C4       C        0.56610    0.82230    0.59710    1.000
    C5       C        0.50100    0.81260    0.51860    1.000
    H3       H        0.50710    0.77830    0.49030    1.000
    C6       C        0.42250    0.84900    0.47280    1.000
    H4       H        0.37840    0.83900    0.41860    1.000
    C7       C        0.64560    0.77640    0.62440    1.000
    C8       C        0.34470    0.95740    0.37420    1.000
    C9       C        0.41700    0.94520    0.34070    1.000
    H5       H        0.47000    0.92460    0.37440    1.000
    C10      C        0.41320    0.96360    0.25350    1.000
    H6       H        0.46540    0.95690    0.23070    1.000
    C11      C        0.33710    0.98990    0.20490    1.000
    C12      C        0.26430    0.00110    0.23880    1.000
    H7       H        0.21160    0.02210    0.20550    1.000
    C13      C        0.26620    0.98190    0.32250    1.000
    H8       H        0.21180    0.98610    0.34300    1.000
    C14      C        0.33520    0.00820    0.11030    1.000
    C15      C        0.31400    0.98380    0.51680    1.000
    C16      C        0.26310    0.96350    0.57680    1.000
    H9       H        0.24780    0.92500    0.57960    1.000
    C17      C        0.23580    0.00660    0.63430    1.000
    H10      H        0.20870    0.99470    0.67900    1.000
    C18      C        0.24970    0.06440    0.62310    1.000
    C19      C        0.29540    0.07710    0.56350    1.000
    H11      H        0.30740    0.11570    0.55610    1.000
    C20      C        0.32700    0.03900    0.51160    1.000
    H12      H        0.35880    0.05260    0.47120    1.000
    C21      C        0.21810    0.10220    0.68000    1.000
    C22      C        0.64440    0.20890    0.83070    1.000
    C23      C        0.66530    0.18540    0.91790    1.000
    H13      H        0.72680    0.18810    0.95780    1.000
    C24      C        0.59370    0.15930    0.94090    1.000
    H14      H        0.60630    0.14480    0.99870    1.000
    C25      C        0.50350    0.15280    0.88480    1.000
    C26      C        0.48370    0.17450    0.79990    1.000
    H15      H        0.42180    0.17070    0.76100    1.000
    C27      C        0.55360    0.20170    0.77150    1.000
    H16      H        0.54030    0.21530    0.71300    1.000
    C28      C        0.42660    0.12050    0.91420    1.000
    C29      C        0.70980    0.28570    0.75440    1.000
    C30      C        0.63920    0.32650    0.76100    1.000
    H17      H        0.59490    0.31750    0.79250    1.000
    C31      C        0.63610    0.37780    0.72200    1.000
    H18      H        0.58860    0.40350    0.72710    1.000
    C32      C        0.69490    0.39350    0.67790    1.000
    C33      C        0.76740    0.35530    0.66960    1.000
    H19      H        0.81180    0.36730    0.64010    1.000
    C34      C        0.77470    0.30000    0.70400    1.000
    H20      H        0.81960    0.27380    0.69450    1.000
    C35      C        0.69720    0.45150    0.63870    1.000
    C36      C        0.81740    0.20490    0.82660    1.000
    C37      C        0.89700    0.23650    0.86270    1.000
    H21      H        0.89220    0.27550    0.87290    1.000
    C38      C        0.98550    0.20990    0.88410    1.000
    H22      H        0.04080    0.23210    0.90530    1.000
    C39      C        0.99600    0.14980    0.87520    1.000
    C40      C        0.91110    0.12130    0.83660    1.000
    H23      H        0.91370    0.08190    0.82930    1.000
    C41      C        0.82040    0.14840    0.80770    1.000
    H24      H        0.76500    0.12850    0.77700    1.000
    C42      C        0.08990    0.12350    0.89900    1.000
    N1       N        0.35190    0.94260    0.46510    1.000
    N2       N        0.72180    0.23310    0.80180    1.000
    O1       O        0.68410    0.78450    0.71500    1.000
    O2       O        0.66670    0.74440    0.57760    1.000
    O3       O        0.39580    0.98550    0.07740    1.000
    O4       O        0.27220    0.04480    0.06680    1.000
    O5       O        0.18210    0.08470    0.74210    1.000
    O6       O        0.24530    0.15630    0.67540    1.000
    O7       O        0.44790    0.09260    0.98390    1.000
    O8       O        0.34270    0.12070    0.86570    1.000
    O9       O        0.62170    0.48100    0.62850    1.000
    O10      O        0.77370    0.46960    0.61920    1.000
    O11      O        0.09220    0.06960    0.90000    1.000
    O12      O        0.16650    0.15180    0.91400    1.000
    Cd2      Cd       0.74111    0.55907    0.57550    1.000
    C43      C        0.58210    0.39970    0.98460    1.000
    C44      C        0.51890    0.40830    0.90420    1.000
    H25      H        0.52490    0.44180    0.87390    1.000
    C45      C        0.44700    0.37190    0.86380    1.000
    H26      H        0.40580    0.38130    0.80800    1.000
    C46      C        0.43390    0.32230    0.90290    1.000
    C47      C        0.49900    0.31260    0.98140    1.000
    H27      H        0.49290    0.27830    0.00970    1.000
    C48      C        0.57750    0.34900    0.02720    1.000
    H28      H        0.62160    0.33900    0.08140    1.000
    C49      C        0.35440    0.27640    0.87560    1.000
    C50      C        0.65530    0.45740    0.12580    1.000
    C51      C        0.58300    0.44520    0.15930    1.000
    H29      H        0.53000    0.42460    0.12560    1.000
    C52      C        0.58680    0.46360    0.24650    1.000
    H30      H        0.53460    0.45690    0.26930    1.000
    C53      C        0.66290    0.48990    0.29510    1.000
    C54      C        0.73570    0.50110    0.26120    1.000
    H31      H        0.78840    0.52210    0.29450    1.000
    C55      C        0.73380    0.48190    0.17750    1.000
    H32      H        0.78820    0.48610    0.15700    1.000
    C56      C        0.66480    0.50820    0.38970    1.000
    C57      C        0.68600    0.48380    0.98320    1.000
    C58      C        0.73690    0.46350    0.92320    1.000
    H33      H        0.75220    0.42500    0.92040    1.000
    C59      C        0.76420    0.50660    0.86570    1.000
    H34      H        0.79130    0.49470    0.82100    1.000
    C60      C        0.75030    0.56440    0.87690    1.000
    C61      C        0.70460    0.57710    0.93650    1.000
    H35      H        0.69260    0.61570    0.94390    1.000
    C62      C        0.67300    0.53900    0.98840    1.000
    H36      H        0.64120    0.55260    0.02880    1.000
    C63      C        0.78190    0.60220    0.82000    1.000
    C64      C        0.35560    0.70890    0.66930    1.000
    C65      C        0.33470    0.68540    0.58210    1.000
    H37      H        0.27320    0.68810    0.54220    1.000
    C66      C        0.40630    0.65930    0.55910    1.000
    H38      H        0.39370    0.64480    0.50130    1.000
    C67      C        0.49650    0.65280    0.61520    1.000
    C68      C        0.51630    0.67450    0.70010    1.000
    H39      H        0.57820    0.67070    0.73900    1.000
    C69      C        0.44640    0.70170    0.72850    1.000
    H40      H        0.45970    0.71530    0.78700    1.000
    C70      C        0.57340    0.62050    0.58580    1.000
    C71      C        0.29020    0.78570    0.74560    1.000
    C72      C        0.36080    0.82650    0.73900    1.000
    H41      H        0.40510    0.81750    0.70750    1.000
    C73      C        0.36390    0.87780    0.77800    1.000
    H42      H        0.41140    0.90350    0.77290    1.000
    C74      C        0.30510    0.89350    0.82210    1.000
    C75      C        0.23260    0.85530    0.83040    1.000
    H43      H        0.18820    0.86730    0.85990    1.000
    C76      C        0.22530    0.80000    0.79600    1.000
    H44      H        0.18040    0.77380    0.80550    1.000
    C77      C        0.30280    0.95150    0.86130    1.000
    C78      C        0.18260    0.70490    0.67340    1.000
    C79      C        0.10300    0.73650    0.63730    1.000
    H45      H        0.10780    0.77550    0.62710    1.000
    C80      C        0.01450    0.70990    0.61590    1.000
    H46      H        0.95920    0.73210    0.59470    1.000
    C81      C        0.00400    0.64980    0.62480    1.000
    C82      C        0.08890    0.62130    0.66340    1.000
    H47      H        0.08630    0.58190    0.67070    1.000
    C83      C        0.17960    0.64840    0.69230    1.000
    H48      H        0.23500    0.62850    0.72300    1.000
    C84      C        0.91010    0.62350    0.60100    1.000
    N3       N        0.64810    0.44260    0.03490    1.000
    N4       N        0.27820    0.73310    0.69820    1.000
    O13      O        0.31590    0.28450    0.78500    1.000
    O14      O        0.33330    0.24440    0.92240    1.000
    O15      O        0.60420    0.48550    0.42260    1.000
    O16      O        0.72780    0.54480    0.43320    1.000
    O17      O        0.81790    0.58470    0.75790    1.000
    O18      O        0.75470    0.65630    0.82460    1.000
    O19      O        0.55210    0.59260    0.51610    1.000
    O20      O        0.65730    0.62070    0.63430    1.000
    O21      O        0.37830    0.98100    0.87150    1.000
    O22      O        0.22630    0.96960    0.88080    1.000
    O23      O        0.90780    0.56960    0.60000    1.000
    O24      O        0.83350    0.65180    0.58600    1.000
    Cd3      Cd       0.74111    0.94093    0.07550    1.000
    C85      C        0.58210    0.10030    0.48460    1.000
    C86      C        0.51890    0.09170    0.40420    1.000
    H49      H        0.52490    0.05820    0.37390    1.000
    C87      C        0.44700    0.12810    0.36380    1.000
    H50      H        0.40580    0.11870    0.30800    1.000
    C88      C        0.43390    0.17770    0.40290    1.000
    C89      C        0.49900    0.18740    0.48140    1.000
    H51      H        0.49290    0.22170    0.50970    1.000
    C90      C        0.57750    0.15100    0.52720    1.000
    H52      H        0.62160    0.16100    0.58140    1.000
    C91      C        0.35440    0.22360    0.37560    1.000
    C92      C        0.65530    0.04260    0.62580    1.000
    C93      C        0.58300    0.05480    0.65930    1.000
    H53      H        0.53000    0.07540    0.62560    1.000
    C94      C        0.58680    0.03640    0.74650    1.000
    H54      H        0.53460    0.04310    0.76930    1.000
    C95      C        0.66290    0.01010    0.79510    1.000
    C96      C        0.73570    0.99890    0.76120    1.000
    H55      H        0.78840    0.97790    0.79450    1.000
    C97      C        0.73380    0.01810    0.67750    1.000
    H56      H        0.78820    0.01390    0.65700    1.000
    C98      C        0.66480    0.99180    0.88970    1.000
    C99      C        0.68600    0.01620    0.48320    1.000
    C100     C        0.73690    0.03650    0.42320    1.000
    H57      H        0.75220    0.07500    0.42040    1.000
    C101     C        0.76420    0.99340    0.36570    1.000
    H58      H        0.79130    0.00530    0.32100    1.000
    C102     C        0.75030    0.93560    0.37690    1.000
    C103     C        0.70460    0.92290    0.43650    1.000
    H59      H        0.69260    0.88430    0.44390    1.000
    C104     C        0.67300    0.96100    0.48840    1.000
    H60      H        0.64120    0.94740    0.52880    1.000
    C105     C        0.78190    0.89780    0.32000    1.000
    C106     C        0.35560    0.79110    0.16930    1.000
    C107     C        0.33470    0.81460    0.08210    1.000
    H61      H        0.27320    0.81190    0.04220    1.000
    C108     C        0.40630    0.84070    0.05910    1.000
    H62      H        0.39370    0.85520    0.00130    1.000
    C109     C        0.49650    0.84720    0.11520    1.000
    C110     C        0.51630    0.82550    0.20010    1.000
    H63      H        0.57820    0.82930    0.23900    1.000
    C111     C        0.44640    0.79830    0.22850    1.000
    H64      H        0.45970    0.78470    0.28700    1.000
    C112     C        0.57340    0.87950    0.08580    1.000
    C113     C        0.29020    0.71430    0.24560    1.000
    C114     C        0.36080    0.67350    0.23900    1.000
    H65      H        0.40510    0.68250    0.20750    1.000
    C115     C        0.36390    0.62220    0.27800    1.000
    H66      H        0.41140    0.59650    0.27290    1.000
    C116     C        0.30510    0.60650    0.32210    1.000
    C117     C        0.23260    0.64470    0.33040    1.000
    H67      H        0.18820    0.63270    0.35990    1.000
    C118     C        0.22530    0.70000    0.29600    1.000
    H68      H        0.18040    0.72620    0.30550    1.000
    C119     C        0.30280    0.54850    0.36130    1.000
    C120     C        0.18260    0.79510    0.17340    1.000
    C121     C        0.10300    0.76350    0.13730    1.000
    H69      H        0.10780    0.72450    0.12710    1.000
    C122     C        0.01450    0.79010    0.11590    1.000
    H70      H        0.95920    0.76790    0.09470    1.000
    C123     C        0.00400    0.85020    0.12480    1.000
    C124     C        0.08890    0.87870    0.16340    1.000
    H71      H        0.08630    0.91810    0.17070    1.000
    C125     C        0.17960    0.85160    0.19230    1.000
    H72      H        0.23500    0.87150    0.22300    1.000
    C126     C        0.91010    0.87650    0.10100    1.000
    N5       N        0.64810    0.05740    0.53490    1.000
    N6       N        0.27820    0.76690    0.19820    1.000
    O25      O        0.31590    0.21550    0.28500    1.000
    O26      O        0.33330    0.25560    0.42240    1.000
    O27      O        0.60420    0.01450    0.92260    1.000
    O28      O        0.72780    0.95520    0.93320    1.000
    O29      O        0.81790    0.91530    0.25790    1.000
    O30      O        0.75470    0.84370    0.32460    1.000
    O31      O        0.55210    0.90740    0.01610    1.000
    O32      O        0.65730    0.87930    0.13430    1.000
    O33      O        0.37830    0.51900    0.37150    1.000
    O34      O        0.22630    0.53040    0.38080    1.000
    O35      O        0.90780    0.93040    0.10000    1.000
    O36      O        0.83350    0.84820    0.08600    1.000
    Cd4      Cd       0.25889    0.44093    0.42450    1.000
    C127     C        0.41790    0.60030    0.01540    1.000
    C128     C        0.48110    0.59170    0.09580    1.000
    H73      H        0.47510    0.55820    0.12610    1.000
    C129     C        0.55300    0.62810    0.13620    1.000
    H74      H        0.59420    0.61870    0.19200    1.000
    C130     C        0.56610    0.67770    0.09710    1.000
    C131     C        0.50100    0.68740    0.01860    1.000
    H75      H        0.50710    0.72170    0.99030    1.000
    C132     C        0.42250    0.65100    0.97280    1.000
    H76      H        0.37840    0.66100    0.91860    1.000
    C133     C        0.64560    0.72360    0.12440    1.000
    C134     C        0.34470    0.54260    0.87420    1.000
    C135     C        0.41700    0.55480    0.84070    1.000
    H77      H        0.47000    0.57540    0.87440    1.000
    C136     C        0.41320    0.53640    0.75350    1.000
    H78      H        0.46540    0.54310    0.73070    1.000
    C137     C        0.33710    0.51010    0.70490    1.000
    C138     C        0.26430    0.49890    0.73880    1.000
    H79      H        0.21160    0.47790    0.70550    1.000
    C139     C        0.26620    0.51810    0.82250    1.000
    H80      H        0.21180    0.51390    0.84300    1.000
    C140     C        0.33520    0.49180    0.61030    1.000
    C141     C        0.31400    0.51620    0.01680    1.000
    C142     C        0.26310    0.53650    0.07680    1.000
    H81      H        0.24780    0.57500    0.07960    1.000
    C143     C        0.23580    0.49340    0.13430    1.000
    H82      H        0.20870    0.50530    0.17900    1.000
    C144     C        0.24970    0.43560    0.12310    1.000
    C145     C        0.29540    0.42290    0.06350    1.000
    H83      H        0.30740    0.38430    0.05610    1.000
    C146     C        0.32700    0.46100    0.01160    1.000
    H84      H        0.35880    0.44740    0.97120    1.000
    C147     C        0.21810    0.39780    0.18000    1.000
    C148     C        0.64440    0.29110    0.33070    1.000
    C149     C        0.66530    0.31460    0.41790    1.000
    H85      H        0.72680    0.31190    0.45780    1.000
    C150     C        0.59370    0.34070    0.44090    1.000
    H86      H        0.60630    0.35520    0.49870    1.000
    C151     C        0.50350    0.34720    0.38480    1.000
    C152     C        0.48370    0.32550    0.29990    1.000
    H87      H        0.42180    0.32930    0.26100    1.000
    C153     C        0.55360    0.29830    0.27150    1.000
    H88      H        0.54030    0.28470    0.21300    1.000
    C154     C        0.42660    0.37950    0.41420    1.000
    C155     C        0.70980    0.21430    0.25440    1.000
    C156     C        0.63920    0.17350    0.26100    1.000
    H89      H        0.59490    0.18250    0.29250    1.000
    C157     C        0.63610    0.12220    0.22200    1.000
    H90      H        0.58860    0.09650    0.22710    1.000
    C158     C        0.69490    0.10650    0.17790    1.000
    C159     C        0.76740    0.14470    0.16960    1.000
    H91      H        0.81180    0.13270    0.14010    1.000
    C160     C        0.77470    0.20000    0.20400    1.000
    H92      H        0.81960    0.22620    0.19450    1.000
    C161     C        0.69720    0.04850    0.13870    1.000
    C162     C        0.81740    0.29510    0.32660    1.000
    C163     C        0.89700    0.26350    0.36270    1.000
    H93      H        0.89220    0.22450    0.37290    1.000
    C164     C        0.98550    0.29010    0.38410    1.000
    H94      H        0.04080    0.26790    0.40530    1.000
    C165     C        0.99600    0.35020    0.37520    1.000
    C166     C        0.91110    0.37870    0.33660    1.000
    H95      H        0.91370    0.41810    0.32930    1.000
    C167     C        0.82040    0.35160    0.30770    1.000
    H96      H        0.76500    0.37150    0.27700    1.000
    C168     C        0.08990    0.37650    0.39900    1.000
    N7       N        0.35190    0.55740    0.96510    1.000
    N8       N        0.72180    0.26690    0.30180    1.000
    O37      O        0.68410    0.71550    0.21500    1.000
    O38      O        0.66670    0.75560    0.07760    1.000
    O39      O        0.39580    0.51450    0.57740    1.000
    O40      O        0.27220    0.45520    0.56680    1.000
    O41      O        0.18210    0.41530    0.24210    1.000
    O42      O        0.24530    0.34370    0.17540    1.000
    O43      O        0.44790    0.40740    0.48390    1.000
    O44      O        0.34270    0.37930    0.36570    1.000
    O45      O        0.62170    0.01900    0.12850    1.000
    O46      O        0.77370    0.03040    0.11920    1.000
    O47      O        0.09220    0.43040    0.40000    1.000
    O48      O        0.16650    0.34820    0.41400    1.000
    Cd5      Cd       0.50000    0.00000    0.00000    1.000
    Cd6      Cd       0.50000    0.50000    0.50000    1.000
