# CIF file generated by openbabel 3.1.0, see https://openbabel.org
data_I
_chemical_name_common 'image0'
_cell_length_a 34.074
_cell_length_b 16.2211
_cell_length_c 28.278
_cell_angle_alpha 90
_cell_angle_beta 124.743
_cell_angle_gamma 90
_space_group_name_H-M_alt 'P 1'
_space_group_name_Hall 'P 1'
loop_
    _symmetry_equiv_pos_as_xyz
    x,y,z
loop_
    _atom_site_label
    _atom_site_type_symbol
    _atom_site_fract_x
    _atom_site_fract_y
    _atom_site_fract_z
    _atom_site_occupancy
    U1       U        0.05624    0.27184    0.56129    1.000
    U2       U        0.27433    0.37983    0.91234    1.000
    U3       U        0.20866    0.14399    0.86225    1.000
    U4       U        0.11978    0.50386    0.61115    1.000
    I1       I        0.09800    0.17183    0.70752    1.000
    I2       I        0.18518    0.50641    0.77507    1.000
    O1       O        0.01500    0.34070    0.55960    1.000
    O2       O        0.09960    0.38010    0.55640    1.000
    O3       O        0.15030    0.21370    0.77250    1.000
    O4       O        0.12140    0.35860    0.61770    1.000
    O5       O        0.27290    0.23500    0.90830    1.000
    O6       O        0.02830    0.31130    0.46380    1.000
    O7       O        0.06270    0.51160    0.59790    1.000
    O8       O        0.23800    0.26790    0.85000    1.000
    O9       O        0.16560    0.18070    0.99530    1.000
    O10      O        0.91830    0.39740    0.55830    1.000
    O11      O        0.02070    0.16420    0.58680    1.000
    O12      O        0.91630    0.46730    0.48850    1.000
    O13      O        0.85540    0.38960    0.31480    1.000
    O14      O        0.09210    0.25850    0.66380    1.000
    O15      O        0.05260    0.19760    0.71870    1.000
    O16      O        0.23150    0.37920    0.92920    1.000
    O17      O        0.27300    0.09520    0.95500    1.000
    O18      O        0.13370    0.06670    0.79770    1.000
    O19      O        0.32220    0.00170    0.01770    1.000
    O20      O        0.09210    0.18490    0.91390    1.000
    O21      O        0.15300    0.45270    0.70730    1.000
    O22      O        0.24300    0.97120    0.10410    1.000
    O23      O        0.98920    0.03800    0.57320    1.000
    O24      O        0.21610    0.41380    0.81350    1.000
    O25      O        0.18050    0.18890    0.89350    1.000
    O26      O        0.14020    0.50850    0.78860    1.000
    O27      O        0.99840    0.28400    0.37390    1.000
    O28      O        0.81500    0.27440    0.26850    1.000
    O29      O        0.22050    0.83900    0.08770    1.000
    O30      O        0.09930    0.94950    0.74460    1.000
    N1       N        0.98300    0.18540    0.47420    1.000
    N2       N        0.16970    0.01570    0.00000    1.000
    N3       N        0.20240    0.98960    0.89040    1.000
    N4       N        0.87920    0.33910    0.41580    1.000
    C1       C        0.99960    0.09740    0.55700    1.000
    C2       C        0.87270    0.34000    0.46280    1.000
    C3       C        0.28510    0.02080    0.97070    1.000
    C4       C        0.92630    0.30600    0.43330    1.000
    C5       C        0.83870    0.29680    0.36570    1.000
    C6       C        0.93480    0.21700    0.45610    1.000
    C7       C        0.98750    0.09920    0.49400    1.000
    C8       C        0.90510    0.40490    0.50650    1.000
    C9       C        0.12660    0.14670    0.95520    1.000
    C10      C        0.98730    0.18210    0.42520    1.000
    C11      C        0.00530    0.26460    0.41930    1.000
    C12      C        0.25200    0.95520    0.93030    1.000
    C13      C        0.12120    0.05410    0.96250    1.000
    C14      C        0.19750    0.01700    0.97190    1.000
    C15      C        0.83710    0.32440    0.31250    1.000
    C16      C        0.17710    0.94110    0.83580    1.000
    C17      C        0.16520    0.93710    0.01910    1.000
    C18      C        0.21380    0.91470    0.07610    1.000
    C19      C        0.17300    0.97230    0.91300    1.000
    C20      C        0.13250    0.98990    0.79150    1.000
    K1       K        0.15850    0.32592    0.93719    1.000
    K2       K        0.98413    0.28740    0.63093    1.000
    K3       K        0.19686    0.29650    0.73157    1.000
    K4       K        0.98173    0.53830    0.59460    1.000
    O31      O        0.04800    0.41890    0.68400    1.000
    U5       U        0.55624    0.77184    0.56129    1.000
    U6       U        0.77433    0.87983    0.91234    1.000
    U7       U        0.70866    0.64399    0.86225    1.000
    U8       U        0.61978    0.00386    0.61115    1.000
    I3       I        0.59800    0.67183    0.70752    1.000
    I4       I        0.68518    0.00641    0.77507    1.000
    O32      O        0.51500    0.84070    0.55960    1.000
    O33      O        0.59960    0.88010    0.55640    1.000
    O34      O        0.65030    0.71370    0.77250    1.000
    O35      O        0.62140    0.85860    0.61770    1.000
    O36      O        0.77290    0.73500    0.90830    1.000
    O37      O        0.52830    0.81130    0.46380    1.000
    O38      O        0.56270    0.01160    0.59790    1.000
    O39      O        0.73800    0.76790    0.85000    1.000
    O40      O        0.66560    0.68070    0.99530    1.000
    O41      O        0.41830    0.89740    0.55830    1.000
    O42      O        0.52070    0.66420    0.58680    1.000
    O43      O        0.41630    0.96730    0.48850    1.000
    O44      O        0.35540    0.88960    0.31480    1.000
    O45      O        0.59210    0.75850    0.66380    1.000
    O46      O        0.55260    0.69760    0.71870    1.000
    O47      O        0.73150    0.87920    0.92920    1.000
    O48      O        0.77300    0.59520    0.95500    1.000
    O49      O        0.63370    0.56670    0.79770    1.000
    O50      O        0.82220    0.50170    0.01770    1.000
    O51      O        0.59210    0.68490    0.91390    1.000
    O52      O        0.65300    0.95270    0.70730    1.000
    O53      O        0.74300    0.47120    0.10410    1.000
    O54      O        0.48920    0.53800    0.57320    1.000
    O55      O        0.71610    0.91380    0.81350    1.000
    O56      O        0.68050    0.68890    0.89350    1.000
    O57      O        0.64020    0.00850    0.78860    1.000
    O58      O        0.49840    0.78400    0.37390    1.000
    O59      O        0.31500    0.77440    0.26850    1.000
    O60      O        0.72050    0.33900    0.08770    1.000
    O61      O        0.59930    0.44950    0.74460    1.000
    N5       N        0.48300    0.68540    0.47420    1.000
    N6       N        0.66970    0.51570    0.00000    1.000
    N7       N        0.70240    0.48960    0.89040    1.000
    N8       N        0.37920    0.83910    0.41580    1.000
    C21      C        0.49960    0.59740    0.55700    1.000
    C22      C        0.37270    0.84000    0.46280    1.000
    C23      C        0.78510    0.52080    0.97070    1.000
    C24      C        0.42630    0.80600    0.43330    1.000
    C25      C        0.33870    0.79680    0.36570    1.000
    C26      C        0.43480    0.71700    0.45610    1.000
    C27      C        0.48750    0.59920    0.49400    1.000
    C28      C        0.40510    0.90490    0.50650    1.000
    C29      C        0.62660    0.64670    0.95520    1.000
    C30      C        0.48730    0.68210    0.42520    1.000
    C31      C        0.50530    0.76460    0.41930    1.000
    C32      C        0.75200    0.45520    0.93030    1.000
    C33      C        0.62120    0.55410    0.96250    1.000
    C34      C        0.69750    0.51700    0.97190    1.000
    C35      C        0.33710    0.82440    0.31250    1.000
    C36      C        0.67710    0.44110    0.83580    1.000
    C37      C        0.66520    0.43710    0.01910    1.000
    C38      C        0.71380    0.41470    0.07610    1.000
    C39      C        0.67300    0.47230    0.91300    1.000
    C40      C        0.63250    0.48990    0.79150    1.000
    K5       K        0.65850    0.82592    0.93719    1.000
    K6       K        0.48413    0.78740    0.63093    1.000
    K7       K        0.69686    0.79650    0.73157    1.000
    K8       K        0.48173    0.03830    0.59460    1.000
    O62      O        0.54800    0.91890    0.68400    1.000
    U9       U        0.94376    0.27184    0.93871    1.000
    U10      U        0.72567    0.37983    0.58766    1.000
    U11      U        0.79134    0.14399    0.63775    1.000
    U12      U        0.88022    0.50386    0.88885    1.000
    I5       I        0.90200    0.17183    0.79248    1.000
    I6       I        0.81482    0.50641    0.72493    1.000
    O63      O        0.98500    0.34070    0.94040    1.000
    O64      O        0.90040    0.38010    0.94360    1.000
    O65      O        0.84970    0.21370    0.72750    1.000
    O66      O        0.87860    0.35860    0.88230    1.000
    O67      O        0.72710    0.23500    0.59170    1.000
    O68      O        0.97170    0.31130    0.03620    1.000
    O69      O        0.93730    0.51160    0.90210    1.000
    O70      O        0.76200    0.26790    0.65000    1.000
    O71      O        0.83440    0.18070    0.50470    1.000
    O72      O        0.08170    0.39740    0.94170    1.000
    O73      O        0.97930    0.16420    0.91320    1.000
    O74      O        0.08370    0.46730    0.01150    1.000
    O75      O        0.14460    0.38960    0.18520    1.000
    O76      O        0.90790    0.25850    0.83620    1.000
    O77      O        0.94740    0.19760    0.78130    1.000
    O78      O        0.76850    0.37920    0.57080    1.000
    O79      O        0.72700    0.09520    0.54500    1.000
    O80      O        0.86630    0.06670    0.70230    1.000
    O81      O        0.67780    0.00170    0.48230    1.000
    O82      O        0.90790    0.18490    0.58610    1.000
    O83      O        0.84700    0.45270    0.79270    1.000
    O84      O        0.75700    0.97120    0.39590    1.000
    O85      O        0.01080    0.03800    0.92680    1.000
    O86      O        0.78390    0.41380    0.68650    1.000
    O87      O        0.81950    0.18890    0.60650    1.000
    O88      O        0.85980    0.50850    0.71140    1.000
    O89      O        0.00160    0.28400    0.12610    1.000
    O90      O        0.18500    0.27440    0.23150    1.000
    O91      O        0.77950    0.83900    0.41230    1.000
    O92      O        0.90070    0.94950    0.75540    1.000
    N9       N        0.01700    0.18540    0.02580    1.000
    N10      N        0.83030    0.01570    0.50000    1.000
    N11      N        0.79760    0.98960    0.60960    1.000
    N12      N        0.12080    0.33910    0.08420    1.000
    C41      C        0.00040    0.09740    0.94300    1.000
    C42      C        0.12730    0.34000    0.03720    1.000
    C43      C        0.71490    0.02080    0.52930    1.000
    C44      C        0.07370    0.30600    0.06670    1.000
    C45      C        0.16130    0.29680    0.13430    1.000
    C46      C        0.06520    0.21700    0.04390    1.000
    C47      C        0.01250    0.09920    0.00600    1.000
    C48      C        0.09490    0.40490    0.99350    1.000
    C49      C        0.87340    0.14670    0.54480    1.000
    C50      C        0.01270    0.18210    0.07480    1.000
    C51      C        0.99470    0.26460    0.08070    1.000
    C52      C        0.74800    0.95520    0.56970    1.000
    C53      C        0.87880    0.05410    0.53750    1.000
    C54      C        0.80250    0.01700    0.52810    1.000
    C55      C        0.16290    0.32440    0.18750    1.000
    C56      C        0.82290    0.94110    0.66420    1.000
    C57      C        0.83480    0.93710    0.48090    1.000
    C58      C        0.78620    0.91470    0.42390    1.000
    C59      C        0.82700    0.97230    0.58700    1.000
    C60      C        0.86750    0.98990    0.70850    1.000
    K9       K        0.84150    0.32592    0.56281    1.000
    K10      K        0.01587    0.28740    0.86907    1.000
    K11      K        0.80314    0.29650    0.76843    1.000
    K12      K        0.01827    0.53830    0.90540    1.000
    O93      O        0.95200    0.41890    0.81600    1.000
    U13      U        0.44376    0.77184    0.93871    1.000
    U14      U        0.22567    0.87983    0.58766    1.000
    U15      U        0.29134    0.64399    0.63775    1.000
    U16      U        0.38022    0.00386    0.88885    1.000
    I7       I        0.40200    0.67183    0.79248    1.000
    I8       I        0.31482    0.00641    0.72493    1.000
    O94      O        0.48500    0.84070    0.94040    1.000
    O95      O        0.40040    0.88010    0.94360    1.000
    O96      O        0.34970    0.71370    0.72750    1.000
    O97      O        0.37860    0.85860    0.88230    1.000
    O98      O        0.22710    0.73500    0.59170    1.000
    O99      O        0.47170    0.81130    0.03620    1.000
    O100     O        0.43730    0.01160    0.90210    1.000
    O101     O        0.26200    0.76790    0.65000    1.000
    O102     O        0.33440    0.68070    0.50470    1.000
    O103     O        0.58170    0.89740    0.94170    1.000
    O104     O        0.47930    0.66420    0.91320    1.000
    O105     O        0.58370    0.96730    0.01150    1.000
    O106     O        0.64460    0.88960    0.18520    1.000
    O107     O        0.40790    0.75850    0.83620    1.000
    O108     O        0.44740    0.69760    0.78130    1.000
    O109     O        0.26850    0.87920    0.57080    1.000
    O110     O        0.22700    0.59520    0.54500    1.000
    O111     O        0.36630    0.56670    0.70230    1.000
    O112     O        0.17780    0.50170    0.48230    1.000
    O113     O        0.40790    0.68490    0.58610    1.000
    O114     O        0.34700    0.95270    0.79270    1.000
    O115     O        0.25700    0.47120    0.39590    1.000
    O116     O        0.51080    0.53800    0.92680    1.000
    O117     O        0.28390    0.91380    0.68650    1.000
    O118     O        0.31950    0.68890    0.60650    1.000
    O119     O        0.35980    0.00850    0.71140    1.000
    O120     O        0.50160    0.78400    0.12610    1.000
    O121     O        0.68500    0.77440    0.23150    1.000
    O122     O        0.27950    0.33900    0.41230    1.000
    O123     O        0.40070    0.44950    0.75540    1.000
    N13      N        0.51700    0.68540    0.02580    1.000
    N14      N        0.33030    0.51570    0.50000    1.000
    N15      N        0.29760    0.48960    0.60960    1.000
    N16      N        0.62080    0.83910    0.08420    1.000
    C61      C        0.50040    0.59740    0.94300    1.000
    C62      C        0.62730    0.84000    0.03720    1.000
    C63      C        0.21490    0.52080    0.52930    1.000
    C64      C        0.57370    0.80600    0.06670    1.000
    C65      C        0.66130    0.79680    0.13430    1.000
    C66      C        0.56520    0.71700    0.04390    1.000
    C67      C        0.51250    0.59920    0.00600    1.000
    C68      C        0.59490    0.90490    0.99350    1.000
    C69      C        0.37340    0.64670    0.54480    1.000
    C70      C        0.51270    0.68210    0.07480    1.000
    C71      C        0.49470    0.76460    0.08070    1.000
    C72      C        0.24800    0.45520    0.56970    1.000
    C73      C        0.37880    0.55410    0.53750    1.000
    C74      C        0.30250    0.51700    0.52810    1.000
    C75      C        0.66290    0.82440    0.18750    1.000
    C76      C        0.32290    0.44110    0.66420    1.000
    C77      C        0.33480    0.43710    0.48090    1.000
    C78      C        0.28620    0.41470    0.42390    1.000
    C79      C        0.32700    0.47230    0.58700    1.000
    C80      C        0.36750    0.48990    0.70850    1.000
    K13      K        0.34150    0.82592    0.56281    1.000
    K14      K        0.51587    0.78740    0.86907    1.000
    K15      K        0.30314    0.79650    0.76843    1.000
    K16      K        0.51827    0.03830    0.90540    1.000
    O124     O        0.45200    0.91890    0.81600    1.000
    U17      U        0.94376    0.72816    0.43871    1.000
    U18      U        0.72567    0.62017    0.08766    1.000
    U19      U        0.79134    0.85601    0.13775    1.000
    U20      U        0.88022    0.49614    0.38885    1.000
    I9       I        0.90200    0.82817    0.29248    1.000
    I10      I        0.81482    0.49359    0.22493    1.000
    O125     O        0.98500    0.65930    0.44040    1.000
    O126     O        0.90040    0.61990    0.44360    1.000
    O127     O        0.84970    0.78630    0.22750    1.000
    O128     O        0.87860    0.64140    0.38230    1.000
    O129     O        0.72710    0.76500    0.09170    1.000
    O130     O        0.97170    0.68870    0.53620    1.000
    O131     O        0.93730    0.48840    0.40210    1.000
    O132     O        0.76200    0.73210    0.15000    1.000
    O133     O        0.83440    0.81930    0.00470    1.000
    O134     O        0.08170    0.60260    0.44170    1.000
    O135     O        0.97930    0.83580    0.41320    1.000
    O136     O        0.08370    0.53270    0.51150    1.000
    O137     O        0.14460    0.61040    0.68520    1.000
    O138     O        0.90790    0.74150    0.33620    1.000
    O139     O        0.94740    0.80240    0.28130    1.000
    O140     O        0.76850    0.62080    0.07080    1.000
    O141     O        0.72700    0.90480    0.04500    1.000
    O142     O        0.86630    0.93330    0.20230    1.000
    O143     O        0.67780    0.99830    0.98230    1.000
    O144     O        0.90790    0.81510    0.08610    1.000
    O145     O        0.84700    0.54730    0.29270    1.000
    O146     O        0.75700    0.02880    0.89590    1.000
    O147     O        0.01080    0.96200    0.42680    1.000
    O148     O        0.78390    0.58620    0.18650    1.000
    O149     O        0.81950    0.81110    0.10650    1.000
    O150     O        0.85980    0.49150    0.21140    1.000
    O151     O        0.00160    0.71600    0.62610    1.000
    O152     O        0.18500    0.72560    0.73150    1.000
    O153     O        0.77950    0.16100    0.91230    1.000
    O154     O        0.90070    0.05050    0.25540    1.000
    N17      N        0.01700    0.81460    0.52580    1.000
    N18      N        0.83030    0.98430    0.00000    1.000
    N19      N        0.79760    0.01040    0.10960    1.000
    N20      N        0.12080    0.66090    0.58420    1.000
    C81      C        0.00040    0.90260    0.44300    1.000
    C82      C        0.12730    0.66000    0.53720    1.000
    C83      C        0.71490    0.97920    0.02930    1.000
    C84      C        0.07370    0.69400    0.56670    1.000
    C85      C        0.16130    0.70320    0.63430    1.000
    C86      C        0.06520    0.78300    0.54390    1.000
    C87      C        0.01250    0.90080    0.50600    1.000
    C88      C        0.09490    0.59510    0.49350    1.000
    C89      C        0.87340    0.85330    0.04480    1.000
    C90      C        0.01270    0.81790    0.57480    1.000
    C91      C        0.99470    0.73540    0.58070    1.000
    C92      C        0.74800    0.04480    0.06970    1.000
    C93      C        0.87880    0.94590    0.03750    1.000
    C94      C        0.80250    0.98300    0.02810    1.000
    C95      C        0.16290    0.67560    0.68750    1.000
    C96      C        0.82290    0.05890    0.16420    1.000
    C97      C        0.83480    0.06290    0.98090    1.000
    C98      C        0.78620    0.08530    0.92390    1.000
    C99      C        0.82700    0.02770    0.08700    1.000
    C100     C        0.86750    0.01010    0.20850    1.000
    K17      K        0.84150    0.67408    0.06281    1.000
    K18      K        0.01587    0.71260    0.36907    1.000
    K19      K        0.80314    0.70350    0.26843    1.000
    K20      K        0.01827    0.46170    0.40540    1.000
    O155     O        0.95200    0.58110    0.31600    1.000
    U21      U        0.44376    0.22816    0.43871    1.000
    U22      U        0.22567    0.12017    0.08766    1.000
    U23      U        0.29134    0.35601    0.13775    1.000
    U24      U        0.38022    0.99614    0.38885    1.000
    I11      I        0.40200    0.32817    0.29248    1.000
    I12      I        0.31482    0.99359    0.22493    1.000
    O156     O        0.48500    0.15930    0.44040    1.000
    O157     O        0.40040    0.11990    0.44360    1.000
    O158     O        0.34970    0.28630    0.22750    1.000
    O159     O        0.37860    0.14140    0.38230    1.000
    O160     O        0.22710    0.26500    0.09170    1.000
    O161     O        0.47170    0.18870    0.53620    1.000
    O162     O        0.43730    0.98840    0.40210    1.000
    O163     O        0.26200    0.23210    0.15000    1.000
    O164     O        0.33440    0.31930    0.00470    1.000
    O165     O        0.58170    0.10260    0.44170    1.000
    O166     O        0.47930    0.33580    0.41320    1.000
    O167     O        0.58370    0.03270    0.51150    1.000
    O168     O        0.64460    0.11040    0.68520    1.000
    O169     O        0.40790    0.24150    0.33620    1.000
    O170     O        0.44740    0.30240    0.28130    1.000
    O171     O        0.26850    0.12080    0.07080    1.000
    O172     O        0.22700    0.40480    0.04500    1.000
    O173     O        0.36630    0.43330    0.20230    1.000
    O174     O        0.17780    0.49830    0.98230    1.000
    O175     O        0.40790    0.31510    0.08610    1.000
    O176     O        0.34700    0.04730    0.29270    1.000
    O177     O        0.25700    0.52880    0.89590    1.000
    O178     O        0.51080    0.46200    0.42680    1.000
    O179     O        0.28390    0.08620    0.18650    1.000
    O180     O        0.31950    0.31110    0.10650    1.000
    O181     O        0.35980    0.99150    0.21140    1.000
    O182     O        0.50160    0.21600    0.62610    1.000
    O183     O        0.68500    0.22560    0.73150    1.000
    O184     O        0.27950    0.66100    0.91230    1.000
    O185     O        0.40070    0.55050    0.25540    1.000
    N21      N        0.51700    0.31460    0.52580    1.000
    N22      N        0.33030    0.48430    0.00000    1.000
    N23      N        0.29760    0.51040    0.10960    1.000
    N24      N        0.62080    0.16090    0.58420    1.000
    C101     C        0.50040    0.40260    0.44300    1.000
    C102     C        0.62730    0.16000    0.53720    1.000
    C103     C        0.21490    0.47920    0.02930    1.000
    C104     C        0.57370    0.19400    0.56670    1.000
    C105     C        0.66130    0.20320    0.63430    1.000
    C106     C        0.56520    0.28300    0.54390    1.000
    C107     C        0.51250    0.40080    0.50600    1.000
    C108     C        0.59490    0.09510    0.49350    1.000
    C109     C        0.37340    0.35330    0.04480    1.000
    C110     C        0.51270    0.31790    0.57480    1.000
    C111     C        0.49470    0.23540    0.58070    1.000
    C112     C        0.24800    0.54480    0.06970    1.000
    C113     C        0.37880    0.44590    0.03750    1.000
    C114     C        0.30250    0.48300    0.02810    1.000
    C115     C        0.66290    0.17560    0.68750    1.000
    C116     C        0.32290    0.55890    0.16420    1.000
    C117     C        0.33480    0.56290    0.98090    1.000
    C118     C        0.28620    0.58530    0.92390    1.000
    C119     C        0.32700    0.52770    0.08700    1.000
    C120     C        0.36750    0.51010    0.20850    1.000
    K21      K        0.34150    0.17408    0.06281    1.000
    K22      K        0.51587    0.21260    0.36907    1.000
    K23      K        0.30314    0.20350    0.26843    1.000
    K24      K        0.51827    0.96170    0.40540    1.000
    O186     O        0.45200    0.08110    0.31600    1.000
    U25      U        0.05624    0.72816    0.06129    1.000
    U26      U        0.27433    0.62017    0.41234    1.000
    U27      U        0.20866    0.85601    0.36225    1.000
    U28      U        0.11978    0.49614    0.11115    1.000
    I13      I        0.09800    0.82817    0.20752    1.000
    I14      I        0.18518    0.49359    0.27507    1.000
    O187     O        0.01500    0.65930    0.05960    1.000
    O188     O        0.09960    0.61990    0.05640    1.000
    O189     O        0.15030    0.78630    0.27250    1.000
    O190     O        0.12140    0.64140    0.11770    1.000
    O191     O        0.27290    0.76500    0.40830    1.000
    O192     O        0.02830    0.68870    0.96380    1.000
    O193     O        0.06270    0.48840    0.09790    1.000
    O194     O        0.23800    0.73210    0.35000    1.000
    O195     O        0.16560    0.81930    0.49530    1.000
    O196     O        0.91830    0.60260    0.05830    1.000
    O197     O        0.02070    0.83580    0.08680    1.000
    O198     O        0.91630    0.53270    0.98850    1.000
    O199     O        0.85540    0.61040    0.81480    1.000
    O200     O        0.09210    0.74150    0.16380    1.000
    O201     O        0.05260    0.80240    0.21870    1.000
    O202     O        0.23150    0.62080    0.42920    1.000
    O203     O        0.27300    0.90480    0.45500    1.000
    O204     O        0.13370    0.93330    0.29770    1.000
    O205     O        0.32220    0.99830    0.51770    1.000
    O206     O        0.09210    0.81510    0.41390    1.000
    O207     O        0.15300    0.54730    0.20730    1.000
    O208     O        0.24300    0.02880    0.60410    1.000
    O209     O        0.98920    0.96200    0.07320    1.000
    O210     O        0.21610    0.58620    0.31350    1.000
    O211     O        0.18050    0.81110    0.39350    1.000
    O212     O        0.14020    0.49150    0.28860    1.000
    O213     O        0.99840    0.71600    0.87390    1.000
    O214     O        0.81500    0.72560    0.76850    1.000
    O215     O        0.22050    0.16100    0.58770    1.000
    O216     O        0.09930    0.05050    0.24460    1.000
    N25      N        0.98300    0.81460    0.97420    1.000
    N26      N        0.16970    0.98430    0.50000    1.000
    N27      N        0.20240    0.01040    0.39040    1.000
    N28      N        0.87920    0.66090    0.91580    1.000
    C121     C        0.99960    0.90260    0.05700    1.000
    C122     C        0.87270    0.66000    0.96280    1.000
    C123     C        0.28510    0.97920    0.47070    1.000
    C124     C        0.92630    0.69400    0.93330    1.000
    C125     C        0.83870    0.70320    0.86570    1.000
    C126     C        0.93480    0.78300    0.95610    1.000
    C127     C        0.98750    0.90080    0.99400    1.000
    C128     C        0.90510    0.59510    0.00650    1.000
    C129     C        0.12660    0.85330    0.45520    1.000
    C130     C        0.98730    0.81790    0.92520    1.000
    C131     C        0.00530    0.73540    0.91930    1.000
    C132     C        0.25200    0.04480    0.43030    1.000
    C133     C        0.12120    0.94590    0.46250    1.000
    C134     C        0.19750    0.98300    0.47190    1.000
    C135     C        0.83710    0.67560    0.81250    1.000
    C136     C        0.17710    0.05890    0.33580    1.000
    C137     C        0.16520    0.06290    0.51910    1.000
    C138     C        0.21380    0.08530    0.57610    1.000
    C139     C        0.17300    0.02770    0.41300    1.000
    C140     C        0.13250    0.01010    0.29150    1.000
    K25      K        0.15850    0.67408    0.43719    1.000
    K26      K        0.98413    0.71260    0.13093    1.000
    K27      K        0.19686    0.70350    0.23157    1.000
    K28      K        0.98173    0.46170    0.09460    1.000
    O217     O        0.04800    0.58110    0.18400    1.000
    U29      U        0.55624    0.22816    0.06129    1.000
    U30      U        0.77433    0.12017    0.41234    1.000
    U31      U        0.70866    0.35601    0.36225    1.000
    U32      U        0.61978    0.99614    0.11115    1.000
    I15      I        0.59800    0.32817    0.20752    1.000
    I16      I        0.68518    0.99359    0.27507    1.000
    O218     O        0.51500    0.15930    0.05960    1.000
    O219     O        0.59960    0.11990    0.05640    1.000
    O220     O        0.65030    0.28630    0.27250    1.000
    O221     O        0.62140    0.14140    0.11770    1.000
    O222     O        0.77290    0.26500    0.40830    1.000
    O223     O        0.52830    0.18870    0.96380    1.000
    O224     O        0.56270    0.98840    0.09790    1.000
    O225     O        0.73800    0.23210    0.35000    1.000
    O226     O        0.66560    0.31930    0.49530    1.000
    O227     O        0.41830    0.10260    0.05830    1.000
    O228     O        0.52070    0.33580    0.08680    1.000
    O229     O        0.41630    0.03270    0.98850    1.000
    O230     O        0.35540    0.11040    0.81480    1.000
    O231     O        0.59210    0.24150    0.16380    1.000
    O232     O        0.55260    0.30240    0.21870    1.000
    O233     O        0.73150    0.12080    0.42920    1.000
    O234     O        0.77300    0.40480    0.45500    1.000
    O235     O        0.63370    0.43330    0.29770    1.000
    O236     O        0.82220    0.49830    0.51770    1.000
    O237     O        0.59210    0.31510    0.41390    1.000
    O238     O        0.65300    0.04730    0.20730    1.000
    O239     O        0.74300    0.52880    0.60410    1.000
    O240     O        0.48920    0.46200    0.07320    1.000
    O241     O        0.71610    0.08620    0.31350    1.000
    O242     O        0.68050    0.31110    0.39350    1.000
    O243     O        0.64020    0.99150    0.28860    1.000
    O244     O        0.49840    0.21600    0.87390    1.000
    O245     O        0.31500    0.22560    0.76850    1.000
    O246     O        0.72050    0.66100    0.58770    1.000
    O247     O        0.59930    0.55050    0.24460    1.000
    N29      N        0.48300    0.31460    0.97420    1.000
    N30      N        0.66970    0.48430    0.50000    1.000
    N31      N        0.70240    0.51040    0.39040    1.000
    N32      N        0.37920    0.16090    0.91580    1.000
    C141     C        0.49960    0.40260    0.05700    1.000
    C142     C        0.37270    0.16000    0.96280    1.000
    C143     C        0.78510    0.47920    0.47070    1.000
    C144     C        0.42630    0.19400    0.93330    1.000
    C145     C        0.33870    0.20320    0.86570    1.000
    C146     C        0.43480    0.28300    0.95610    1.000
    C147     C        0.48750    0.40080    0.99400    1.000
    C148     C        0.40510    0.09510    0.00650    1.000
    C149     C        0.62660    0.35330    0.45520    1.000
    C150     C        0.48730    0.31790    0.92520    1.000
    C151     C        0.50530    0.23540    0.91930    1.000
    C152     C        0.75200    0.54480    0.43030    1.000
    C153     C        0.62120    0.44590    0.46250    1.000
    C154     C        0.69750    0.48300    0.47190    1.000
    C155     C        0.33710    0.17560    0.81250    1.000
    C156     C        0.67710    0.55890    0.33580    1.000
    C157     C        0.66520    0.56290    0.51910    1.000
    C158     C        0.71380    0.58530    0.57610    1.000
    C159     C        0.67300    0.52770    0.41300    1.000
    C160     C        0.63250    0.51010    0.29150    1.000
    K29      K        0.65850    0.17408    0.43719    1.000
    K30      K        0.48413    0.21260    0.13093    1.000
    K31      K        0.69686    0.20350    0.23157    1.000
    K32      K        0.48173    0.96170    0.09460    1.000
    O248     O        0.54800    0.08110    0.18400    1.000
