# CIF file generated by openbabel 3.1.0, see https://openbabel.org
data_I
_chemical_name_common 'image0'
_cell_length_a 19.6939
_cell_length_b 27.4554
_cell_length_c 41.4894
_cell_angle_alpha 90
_cell_angle_beta 90
_cell_angle_gamma 90
_space_group_name_H-M_alt 'P 1'
_space_group_name_Hall 'P 1'
loop_
    _symmetry_equiv_pos_as_xyz
    x,y,z
loop_
    _atom_site_label
    _atom_site_type_symbol
    _atom_site_fract_x
    _atom_site_fract_y
    _atom_site_fract_z
    _atom_site_occupancy
    Cu1      Cu       0.18298    0.46137    0.09190    1.000
    Cu2      Cu       0.14292    0.39080    0.02289    1.000
    Cl1      Cl       0.22981    0.38199    0.05883    1.000
    N1       N        0.15010    0.49158    0.99683    1.000
    N2       N        0.15810    0.46257    0.02231    1.000
    N3       N        0.16800    0.48935    0.04824    1.000
    N4       N        0.16530    0.53643    0.04057    1.000
    N5       N        0.30960    0.65907    0.93444    1.000
    N6       N        0.34050    0.67851    0.90876    1.000
    N7       N        0.29810    0.68096    0.88483    1.000
    N8       N        0.23760    0.66356    0.89345    1.000
    C1       C        0.15410    0.53660    0.00893    1.000
    C2       C        0.14120    0.58080    0.98832    1.000
    C3       C        0.20270    0.59150    0.96674    1.000
    H1       H        0.24300    0.59830    0.98030    1.000
    H2       H        0.21280    0.56280    0.95320    1.000
    C4       C        0.18770    0.63550    0.94531    1.000
    H3       H        0.13420    0.59660    0.91010    1.000
    H4       H        0.08560    0.61750    0.02400    1.000
    C5       C        0.07870    0.56980    0.96687    1.000
    H5       H        0.03910    0.56210    0.98060    1.000
    H6       H        0.08830    0.54110    0.95310    1.000
    C6       C        0.24580    0.65030    0.92433    1.000
    O1       O        0.12190    0.32260    0.02230    1.000
    N9       N        0.13650    0.24360    0.00820    1.000
    C7       C        0.15630    0.28810    0.01330    1.000
    H7       H        0.20310    0.29460    0.00970    1.000
    C8       C        0.06600    0.22900    0.00760    1.000
    H8       H        0.03950    0.25090    0.02140    1.000
    H9       H        0.06190    0.19560    0.01560    1.000
    H10      H        0.04880    0.23080    0.98550    1.000
    C9       C        0.18730    0.20520    0.00260    1.000
    H11      H        0.17870    0.18960    0.98180    1.000
    H12      H        0.18440    0.18090    0.01980    1.000
    H13      H        0.23280    0.21970    0.00250    1.000
    O2       O        0.07680    0.40610    0.98660    1.000
    N10      N        0.01530    0.40580    0.94070    1.000
    C10      C        0.04990    0.38430    0.96390    1.000
    H14      H        0.05440    0.34990    0.96310    1.000
    C11      C        0.98610    0.37760    0.91410    1.000
    H15      H        0.01960    0.35390    0.90640    1.000
    H16      H        0.97390    0.39970    0.89640    1.000
    H17      H        0.94550    0.36050    0.92160    1.000
    C12      C        0.00570    0.45900    0.94160    1.000
    H18      H        0.96900    0.46700    0.95660    1.000
    H19      H        0.99380    0.47060    0.92000    1.000
    H20      H        0.04780    0.47460    0.94870    1.000
    O3       O        0.09270    0.38760    0.97810    1.000
    N11      N        0.07110    0.43750    0.93570    1.000
    C13      C        0.10490    0.41940    0.95910    1.000
    H21      H        0.14820    0.43390    0.96200    1.000
    C14      C        0.10350    0.44930    0.90480    1.000
    H22      H        0.15300    0.44880    0.90730    1.000
    H23      H        0.08910    0.48180    0.89780    1.000
    H24      H        0.09000    0.42520    0.88850    1.000
    C15      C        0.99870    0.44830    0.93680    1.000
    H25      H        0.97280    0.41790    0.93520    1.000
    H26      H        0.98680    0.46960    0.91870    1.000
    H27      H        0.98780    0.46470    0.95710    1.000
    Cl2      Cl       0.13550    0.31140    0.01440    1.000
    Cu3      Cu       0.18298    0.96137    0.59190    1.000
    Cu4      Cu       0.14292    0.89080    0.52289    1.000
    Cl3      Cl       0.22981    0.88199    0.55883    1.000
    N12      N        0.15010    0.99158    0.49683    1.000
    N13      N        0.15810    0.96257    0.52231    1.000
    N14      N        0.16800    0.98935    0.54824    1.000
    N15      N        0.16530    0.03643    0.54057    1.000
    N16      N        0.30960    0.15907    0.43444    1.000
    N17      N        0.34050    0.17851    0.40876    1.000
    N18      N        0.29810    0.18096    0.38483    1.000
    N19      N        0.23760    0.16356    0.39345    1.000
    C16      C        0.15410    0.03660    0.50893    1.000
    C17      C        0.14120    0.08080    0.48832    1.000
    C18      C        0.20270    0.09150    0.46674    1.000
    H28      H        0.24300    0.09830    0.48030    1.000
    H29      H        0.21280    0.06280    0.45320    1.000
    C19      C        0.18770    0.13550    0.44531    1.000
    H30      H        0.13420    0.09660    0.41010    1.000
    H31      H        0.08560    0.11750    0.52400    1.000
    C20      C        0.07870    0.06980    0.46687    1.000
    H32      H        0.03910    0.06210    0.48060    1.000
    H33      H        0.08830    0.04110    0.45310    1.000
    C21      C        0.24580    0.15030    0.42433    1.000
    O4       O        0.12190    0.82260    0.52230    1.000
    N20      N        0.13650    0.74360    0.50820    1.000
    C22      C        0.15630    0.78810    0.51330    1.000
    H34      H        0.20310    0.79460    0.50970    1.000
    C23      C        0.06600    0.72900    0.50760    1.000
    H35      H        0.03950    0.75090    0.52140    1.000
    H36      H        0.06190    0.69560    0.51560    1.000
    H37      H        0.04880    0.73080    0.48550    1.000
    C24      C        0.18730    0.70520    0.50260    1.000
    H38      H        0.17870    0.68960    0.48180    1.000
    H39      H        0.18440    0.68090    0.51980    1.000
    H40      H        0.23280    0.71970    0.50250    1.000
    O5       O        0.07680    0.90610    0.48660    1.000
    N21      N        0.01530    0.90580    0.44070    1.000
    C25      C        0.04990    0.88430    0.46390    1.000
    H41      H        0.05440    0.84990    0.46310    1.000
    C26      C        0.98610    0.87760    0.41410    1.000
    H42      H        0.01960    0.85390    0.40640    1.000
    H43      H        0.97390    0.89970    0.39640    1.000
    H44      H        0.94550    0.86050    0.42160    1.000
    C27      C        0.00570    0.95900    0.44160    1.000
    H45      H        0.96900    0.96700    0.45660    1.000
    H46      H        0.99380    0.97060    0.42000    1.000
    H47      H        0.04780    0.97460    0.44870    1.000
    O6       O        0.09270    0.88760    0.47810    1.000
    N22      N        0.07110    0.93750    0.43570    1.000
    C28      C        0.10490    0.91940    0.45910    1.000
    H48      H        0.14820    0.93390    0.46200    1.000
    C29      C        0.10350    0.94930    0.40480    1.000
    H49      H        0.15300    0.94880    0.40730    1.000
    H50      H        0.08910    0.98180    0.39780    1.000
    H51      H        0.09000    0.92520    0.38850    1.000
    C30      C        0.99870    0.94830    0.43680    1.000
    H52      H        0.97280    0.91790    0.43520    1.000
    H53      H        0.98680    0.96960    0.41870    1.000
    H54      H        0.98780    0.96470    0.45710    1.000
    Cl4      Cl       0.13550    0.81140    0.51440    1.000
    Cu5      Cu       0.68298    0.46137    0.59190    1.000
    Cu6      Cu       0.64292    0.39080    0.52289    1.000
    Cl5      Cl       0.72981    0.38199    0.55883    1.000
    N23      N        0.65010    0.49158    0.49683    1.000
    N24      N        0.65810    0.46257    0.52231    1.000
    N25      N        0.66800    0.48935    0.54824    1.000
    N26      N        0.66530    0.53643    0.54057    1.000
    N27      N        0.80960    0.65907    0.43444    1.000
    N28      N        0.84050    0.67851    0.40876    1.000
    N29      N        0.79810    0.68096    0.38483    1.000
    N30      N        0.73760    0.66356    0.39345    1.000
    C31      C        0.65410    0.53660    0.50893    1.000
    C32      C        0.64120    0.58080    0.48832    1.000
    C33      C        0.70270    0.59150    0.46674    1.000
    H55      H        0.74300    0.59830    0.48030    1.000
    H56      H        0.71280    0.56280    0.45320    1.000
    C34      C        0.68770    0.63550    0.44531    1.000
    H57      H        0.63420    0.59660    0.41010    1.000
    H58      H        0.58560    0.61750    0.52400    1.000
    C35      C        0.57870    0.56980    0.46687    1.000
    H59      H        0.53910    0.56210    0.48060    1.000
    H60      H        0.58830    0.54110    0.45310    1.000
    C36      C        0.74580    0.65030    0.42433    1.000
    O7       O        0.62190    0.32260    0.52230    1.000
    N31      N        0.63650    0.24360    0.50820    1.000
    C37      C        0.65630    0.28810    0.51330    1.000
    H61      H        0.70310    0.29460    0.50970    1.000
    C38      C        0.56600    0.22900    0.50760    1.000
    H62      H        0.53950    0.25090    0.52140    1.000
    H63      H        0.56190    0.19560    0.51560    1.000
    H64      H        0.54880    0.23080    0.48550    1.000
    C39      C        0.68730    0.20520    0.50260    1.000
    H65      H        0.67870    0.18960    0.48180    1.000
    H66      H        0.68440    0.18090    0.51980    1.000
    H67      H        0.73280    0.21970    0.50250    1.000
    O8       O        0.57680    0.40610    0.48660    1.000
    N32      N        0.51530    0.40580    0.44070    1.000
    C40      C        0.54990    0.38430    0.46390    1.000
    H68      H        0.55440    0.34990    0.46310    1.000
    C41      C        0.48610    0.37760    0.41410    1.000
    H69      H        0.51960    0.35390    0.40640    1.000
    H70      H        0.47390    0.39970    0.39640    1.000
    H71      H        0.44550    0.36050    0.42160    1.000
    C42      C        0.50570    0.45900    0.44160    1.000
    H72      H        0.46900    0.46700    0.45660    1.000
    H73      H        0.49380    0.47060    0.42000    1.000
    H74      H        0.54780    0.47460    0.44870    1.000
    O9       O        0.59270    0.38760    0.47810    1.000
    N33      N        0.57110    0.43750    0.43570    1.000
    C43      C        0.60490    0.41940    0.45910    1.000
    H75      H        0.64820    0.43390    0.46200    1.000
    C44      C        0.60350    0.44930    0.40480    1.000
    H76      H        0.65300    0.44880    0.40730    1.000
    H77      H        0.58910    0.48180    0.39780    1.000
    H78      H        0.59000    0.42520    0.38850    1.000
    C45      C        0.49870    0.44830    0.43680    1.000
    H79      H        0.47280    0.41790    0.43520    1.000
    H80      H        0.48680    0.46960    0.41870    1.000
    H81      H        0.48780    0.46470    0.45710    1.000
    Cl6      Cl       0.63550    0.31140    0.51440    1.000
    Cu7      Cu       0.68298    0.96137    0.09190    1.000
    Cu8      Cu       0.64292    0.89080    0.02289    1.000
    Cl7      Cl       0.72981    0.88199    0.05883    1.000
    N34      N        0.65010    0.99158    0.99683    1.000
    N35      N        0.65810    0.96257    0.02231    1.000
    N36      N        0.66800    0.98935    0.04824    1.000
    N37      N        0.66530    0.03643    0.04057    1.000
    N38      N        0.80960    0.15907    0.93444    1.000
    N39      N        0.84050    0.17851    0.90876    1.000
    N40      N        0.79810    0.18096    0.88483    1.000
    N41      N        0.73760    0.16356    0.89345    1.000
    C46      C        0.65410    0.03660    0.00893    1.000
    C47      C        0.64120    0.08080    0.98832    1.000
    C48      C        0.70270    0.09150    0.96674    1.000
    H82      H        0.74300    0.09830    0.98030    1.000
    H83      H        0.71280    0.06280    0.95320    1.000
    C49      C        0.68770    0.13550    0.94531    1.000
    H84      H        0.63420    0.09660    0.91010    1.000
    H85      H        0.58560    0.11750    0.02400    1.000
    C50      C        0.57870    0.06980    0.96687    1.000
    H86      H        0.53910    0.06210    0.98060    1.000
    H87      H        0.58830    0.04110    0.95310    1.000
    C51      C        0.74580    0.15030    0.92433    1.000
    O10      O        0.62190    0.82260    0.02230    1.000
    N42      N        0.63650    0.74360    0.00820    1.000
    C52      C        0.65630    0.78810    0.01330    1.000
    H88      H        0.70310    0.79460    0.00970    1.000
    C53      C        0.56600    0.72900    0.00760    1.000
    H89      H        0.53950    0.75090    0.02140    1.000
    H90      H        0.56190    0.69560    0.01560    1.000
    H91      H        0.54880    0.73080    0.98550    1.000
    C54      C        0.68730    0.70520    0.00260    1.000
    H92      H        0.67870    0.68960    0.98180    1.000
    H93      H        0.68440    0.68090    0.01980    1.000
    H94      H        0.73280    0.71970    0.00250    1.000
    O11      O        0.57680    0.90610    0.98660    1.000
    N43      N        0.51530    0.90580    0.94070    1.000
    C55      C        0.54990    0.88430    0.96390    1.000
    H95      H        0.55440    0.84990    0.96310    1.000
    C56      C        0.48610    0.87760    0.91410    1.000
    H96      H        0.51960    0.85390    0.90640    1.000
    H97      H        0.47390    0.89970    0.89640    1.000
    H98      H        0.44550    0.86050    0.92160    1.000
    C57      C        0.50570    0.95900    0.94160    1.000
    H99      H        0.46900    0.96700    0.95660    1.000
    H100     H        0.49380    0.97060    0.92000    1.000
    H101     H        0.54780    0.97460    0.94870    1.000
    O12      O        0.59270    0.88760    0.97810    1.000
    N44      N        0.57110    0.93750    0.93570    1.000
    C58      C        0.60490    0.91940    0.95910    1.000
    H102     H        0.64820    0.93390    0.96200    1.000
    C59      C        0.60350    0.94930    0.90480    1.000
    H103     H        0.65300    0.94880    0.90730    1.000
    H104     H        0.58910    0.98180    0.89780    1.000
    H105     H        0.59000    0.92520    0.88850    1.000
    C60      C        0.49870    0.94830    0.93680    1.000
    H106     H        0.47280    0.91790    0.93520    1.000
    H107     H        0.48680    0.96960    0.91870    1.000
    H108     H        0.48780    0.96470    0.95710    1.000
    Cl8      Cl       0.63550    0.81140    0.01440    1.000
    Cu9      Cu       0.56702    0.28863    0.09190    1.000
    Cu10     Cu       0.60708    0.35920    0.02289    1.000
    Cl9      Cl       0.52019    0.36801    0.05883    1.000
    N45      N        0.59990    0.25842    0.99683    1.000
    N46      N        0.59190    0.28743    0.02231    1.000
    N47      N        0.58200    0.26065    0.04824    1.000
    N48      N        0.58470    0.21357    0.04057    1.000
    N49      N        0.44040    0.09093    0.93444    1.000
    N50      N        0.40950    0.07149    0.90876    1.000
    N51      N        0.45190    0.06904    0.88483    1.000
    N52      N        0.51240    0.08644    0.89345    1.000
    C61      C        0.59590    0.21340    0.00893    1.000
    C62      C        0.60880    0.16920    0.98832    1.000
    C63      C        0.54730    0.15850    0.96674    1.000
    H109     H        0.50700    0.15170    0.98030    1.000
    H110     H        0.53720    0.18720    0.95320    1.000
    C64      C        0.56230    0.11450    0.94531    1.000
    H111     H        0.61580    0.15340    0.91010    1.000
    H112     H        0.66440    0.13250    0.02400    1.000
    C65      C        0.67130    0.18020    0.96687    1.000
    H113     H        0.71090    0.18790    0.98060    1.000
    H114     H        0.66170    0.20890    0.95310    1.000
    C66      C        0.50420    0.09970    0.92433    1.000
    O13      O        0.62810    0.42740    0.02230    1.000
    N53      N        0.61350    0.50640    0.00820    1.000
    C67      C        0.59370    0.46190    0.01330    1.000
    H115     H        0.54690    0.45540    0.00970    1.000
    C68      C        0.68400    0.52100    0.00760    1.000
    H116     H        0.71050    0.49910    0.02140    1.000
    H117     H        0.68810    0.55440    0.01560    1.000
    H118     H        0.70120    0.51920    0.98550    1.000
    C69      C        0.56270    0.54480    0.00260    1.000
    H119     H        0.57130    0.56040    0.98180    1.000
    H120     H        0.56560    0.56910    0.01980    1.000
    H121     H        0.51720    0.53030    0.00250    1.000
    O14      O        0.67320    0.34390    0.98660    1.000
    N54      N        0.73470    0.34420    0.94070    1.000
    C70      C        0.70010    0.36570    0.96390    1.000
    H122     H        0.69560    0.40010    0.96310    1.000
    C71      C        0.76390    0.37240    0.91410    1.000
    H123     H        0.73040    0.39610    0.90640    1.000
    H124     H        0.77610    0.35030    0.89640    1.000
    H125     H        0.80450    0.38950    0.92160    1.000
    C72      C        0.74430    0.29100    0.94160    1.000
    H126     H        0.78100    0.28300    0.95660    1.000
    H127     H        0.75620    0.27940    0.92000    1.000
    H128     H        0.70220    0.27540    0.94870    1.000
    O15      O        0.65730    0.36240    0.97810    1.000
    N55      N        0.67890    0.31250    0.93570    1.000
    C73      C        0.64510    0.33060    0.95910    1.000
    H129     H        0.60180    0.31610    0.96200    1.000
    C74      C        0.64650    0.30070    0.90480    1.000
    H130     H        0.59700    0.30120    0.90730    1.000
    H131     H        0.66090    0.26820    0.89780    1.000
    H132     H        0.66000    0.32480    0.88850    1.000
    C75      C        0.75130    0.30170    0.93680    1.000
    H133     H        0.77720    0.33210    0.93520    1.000
    H134     H        0.76320    0.28040    0.91870    1.000
    H135     H        0.76220    0.28530    0.95710    1.000
    Cl10     Cl       0.61450    0.43860    0.01440    1.000
    Cu11     Cu       0.56702    0.78863    0.59190    1.000
    Cu12     Cu       0.60708    0.85920    0.52289    1.000
    Cl11     Cl       0.52019    0.86801    0.55883    1.000
    N56      N        0.59990    0.75842    0.49683    1.000
    N57      N        0.59190    0.78743    0.52231    1.000
    N58      N        0.58200    0.76065    0.54824    1.000
    N59      N        0.58470    0.71357    0.54057    1.000
    N60      N        0.44040    0.59093    0.43444    1.000
    N61      N        0.40950    0.57149    0.40876    1.000
    N62      N        0.45190    0.56904    0.38483    1.000
    N63      N        0.51240    0.58644    0.39345    1.000
    C76      C        0.59590    0.71340    0.50893    1.000
    C77      C        0.60880    0.66920    0.48832    1.000
    C78      C        0.54730    0.65850    0.46674    1.000
    H136     H        0.50700    0.65170    0.48030    1.000
    H137     H        0.53720    0.68720    0.45320    1.000
    C79      C        0.56230    0.61450    0.44531    1.000
    H138     H        0.61580    0.65340    0.41010    1.000
    H139     H        0.66440    0.63250    0.52400    1.000
    C80      C        0.67130    0.68020    0.46687    1.000
    H140     H        0.71090    0.68790    0.48060    1.000
    H141     H        0.66170    0.70890    0.45310    1.000
    C81      C        0.50420    0.59970    0.42433    1.000
    O16      O        0.62810    0.92740    0.52230    1.000
    N64      N        0.61350    0.00640    0.50820    1.000
    C82      C        0.59370    0.96190    0.51330    1.000
    H142     H        0.54690    0.95540    0.50970    1.000
    C83      C        0.68400    0.02100    0.50760    1.000
    H143     H        0.71050    0.99910    0.52140    1.000
    H144     H        0.68810    0.05440    0.51560    1.000
    H145     H        0.70120    0.01920    0.48550    1.000
    C84      C        0.56270    0.04480    0.50260    1.000
    H146     H        0.57130    0.06040    0.48180    1.000
    H147     H        0.56560    0.06910    0.51980    1.000
    H148     H        0.51720    0.03030    0.50250    1.000
    O17      O        0.67320    0.84390    0.48660    1.000
    N65      N        0.73470    0.84420    0.44070    1.000
    C85      C        0.70010    0.86570    0.46390    1.000
    H149     H        0.69560    0.90010    0.46310    1.000
    C86      C        0.76390    0.87240    0.41410    1.000
    H150     H        0.73040    0.89610    0.40640    1.000
    H151     H        0.77610    0.85030    0.39640    1.000
    H152     H        0.80450    0.88950    0.42160    1.000
    C87      C        0.74430    0.79100    0.44160    1.000
    H153     H        0.78100    0.78300    0.45660    1.000
    H154     H        0.75620    0.77940    0.42000    1.000
    H155     H        0.70220    0.77540    0.44870    1.000
    O18      O        0.65730    0.86240    0.47810    1.000
    N66      N        0.67890    0.81250    0.43570    1.000
    C88      C        0.64510    0.83060    0.45910    1.000
    H156     H        0.60180    0.81610    0.46200    1.000
    C89      C        0.64650    0.80070    0.40480    1.000
    H157     H        0.59700    0.80120    0.40730    1.000
    H158     H        0.66090    0.76820    0.39780    1.000
    H159     H        0.66000    0.82480    0.38850    1.000
    C90      C        0.75130    0.80170    0.43680    1.000
    H160     H        0.77720    0.83210    0.43520    1.000
    H161     H        0.76320    0.78040    0.41870    1.000
    H162     H        0.76220    0.78530    0.45710    1.000
    Cl12     Cl       0.61450    0.93860    0.51440    1.000
    Cu13     Cu       0.06702    0.28863    0.59190    1.000
    Cu14     Cu       0.10708    0.35920    0.52289    1.000
    Cl13     Cl       0.02019    0.36801    0.55883    1.000
    N67      N        0.09990    0.25842    0.49683    1.000
    N68      N        0.09190    0.28743    0.52231    1.000
    N69      N        0.08200    0.26065    0.54824    1.000
    N70      N        0.08470    0.21357    0.54057    1.000
    N71      N        0.94040    0.09093    0.43444    1.000
    N72      N        0.90950    0.07149    0.40876    1.000
    N73      N        0.95190    0.06904    0.38483    1.000
    N74      N        0.01240    0.08644    0.39345    1.000
    C91      C        0.09590    0.21340    0.50893    1.000
    C92      C        0.10880    0.16920    0.48832    1.000
    C93      C        0.04730    0.15850    0.46674    1.000
    H163     H        0.00700    0.15170    0.48030    1.000
    H164     H        0.03720    0.18720    0.45320    1.000
    C94      C        0.06230    0.11450    0.44531    1.000
    H165     H        0.11580    0.15340    0.41010    1.000
    H166     H        0.16440    0.13250    0.52400    1.000
    C95      C        0.17130    0.18020    0.46687    1.000
    H167     H        0.21090    0.18790    0.48060    1.000
    H168     H        0.16170    0.20890    0.45310    1.000
    C96      C        0.00420    0.09970    0.42433    1.000
    O19      O        0.12810    0.42740    0.52230    1.000
    N75      N        0.11350    0.50640    0.50820    1.000
    C97      C        0.09370    0.46190    0.51330    1.000
    H169     H        0.04690    0.45540    0.50970    1.000
    C98      C        0.18400    0.52100    0.50760    1.000
    H170     H        0.21050    0.49910    0.52140    1.000
    H171     H        0.18810    0.55440    0.51560    1.000
    H172     H        0.20120    0.51920    0.48550    1.000
    C99      C        0.06270    0.54480    0.50260    1.000
    H173     H        0.07130    0.56040    0.48180    1.000
    H174     H        0.06560    0.56910    0.51980    1.000
    H175     H        0.01720    0.53030    0.50250    1.000
    O20      O        0.17320    0.34390    0.48660    1.000
    N76      N        0.23470    0.34420    0.44070    1.000
    C100     C        0.20010    0.36570    0.46390    1.000
    H176     H        0.19560    0.40010    0.46310    1.000
    C101     C        0.26390    0.37240    0.41410    1.000
    H177     H        0.23040    0.39610    0.40640    1.000
    H178     H        0.27610    0.35030    0.39640    1.000
    H179     H        0.30450    0.38950    0.42160    1.000
    C102     C        0.24430    0.29100    0.44160    1.000
    H180     H        0.28100    0.28300    0.45660    1.000
    H181     H        0.25620    0.27940    0.42000    1.000
    H182     H        0.20220    0.27540    0.44870    1.000
    O21      O        0.15730    0.36240    0.47810    1.000
    N77      N        0.17890    0.31250    0.43570    1.000
    C103     C        0.14510    0.33060    0.45910    1.000
    H183     H        0.10180    0.31610    0.46200    1.000
    C104     C        0.14650    0.30070    0.40480    1.000
    H184     H        0.09700    0.30120    0.40730    1.000
    H185     H        0.16090    0.26820    0.39780    1.000
    H186     H        0.16000    0.32480    0.38850    1.000
    C105     C        0.25130    0.30170    0.43680    1.000
    H187     H        0.27720    0.33210    0.43520    1.000
    H188     H        0.26320    0.28040    0.41870    1.000
    H189     H        0.26220    0.28530    0.45710    1.000
    Cl14     Cl       0.11450    0.43860    0.51440    1.000
    Cu15     Cu       0.06702    0.78863    0.09190    1.000
    Cu16     Cu       0.10708    0.85920    0.02289    1.000
    Cl15     Cl       0.02019    0.86801    0.05883    1.000
    N78      N        0.09990    0.75842    0.99683    1.000
    N79      N        0.09190    0.78743    0.02231    1.000
    N80      N        0.08200    0.76065    0.04824    1.000
    N81      N        0.08470    0.71357    0.04057    1.000
    N82      N        0.94040    0.59093    0.93444    1.000
    N83      N        0.90950    0.57149    0.90876    1.000
    N84      N        0.95190    0.56904    0.88483    1.000
    N85      N        0.01240    0.58644    0.89345    1.000
    C106     C        0.09590    0.71340    0.00893    1.000
    C107     C        0.10880    0.66920    0.98832    1.000
    C108     C        0.04730    0.65850    0.96674    1.000
    H190     H        0.00700    0.65170    0.98030    1.000
    H191     H        0.03720    0.68720    0.95320    1.000
    C109     C        0.06230    0.61450    0.94531    1.000
    H192     H        0.11580    0.65340    0.91010    1.000
    H193     H        0.16440    0.63250    0.02400    1.000
    C110     C        0.17130    0.68020    0.96687    1.000
    H194     H        0.21090    0.68790    0.98060    1.000
    H195     H        0.16170    0.70890    0.95310    1.000
    C111     C        0.00420    0.59970    0.92433    1.000
    O22      O        0.12810    0.92740    0.02230    1.000
    N86      N        0.11350    0.00640    0.00820    1.000
    C112     C        0.09370    0.96190    0.01330    1.000
    H196     H        0.04690    0.95540    0.00970    1.000
    C113     C        0.18400    0.02100    0.00760    1.000
    H197     H        0.21050    0.99910    0.02140    1.000
    H198     H        0.18810    0.05440    0.01560    1.000
    H199     H        0.20120    0.01920    0.98550    1.000
    C114     C        0.06270    0.04480    0.00260    1.000
    H200     H        0.07130    0.06040    0.98180    1.000
    H201     H        0.06560    0.06910    0.01980    1.000
    H202     H        0.01720    0.03030    0.00250    1.000
    O23      O        0.17320    0.84390    0.98660    1.000
    N87      N        0.23470    0.84420    0.94070    1.000
    C115     C        0.20010    0.86570    0.96390    1.000
    H203     H        0.19560    0.90010    0.96310    1.000
    C116     C        0.26390    0.87240    0.91410    1.000
    H204     H        0.23040    0.89610    0.90640    1.000
    H205     H        0.27610    0.85030    0.89640    1.000
    H206     H        0.30450    0.88950    0.92160    1.000
    C117     C        0.24430    0.79100    0.94160    1.000
    H207     H        0.28100    0.78300    0.95660    1.000
    H208     H        0.25620    0.77940    0.92000    1.000
    H209     H        0.20220    0.77540    0.94870    1.000
    O24      O        0.15730    0.86240    0.97810    1.000
    N88      N        0.17890    0.81250    0.93570    1.000
    C118     C        0.14510    0.83060    0.95910    1.000
    H210     H        0.10180    0.81610    0.96200    1.000
    C119     C        0.14650    0.80070    0.90480    1.000
    H211     H        0.09700    0.80120    0.90730    1.000
    H212     H        0.16090    0.76820    0.89780    1.000
    H213     H        0.16000    0.82480    0.88850    1.000
    C120     C        0.25130    0.80170    0.93680    1.000
    H214     H        0.27720    0.83210    0.93520    1.000
    H215     H        0.26320    0.78040    0.91870    1.000
    H216     H        0.26220    0.78530    0.95710    1.000
    Cl16     Cl       0.11450    0.93860    0.01440    1.000
    Cu17     Cu       0.56702    0.46137    0.65810    1.000
    Cu18     Cu       0.60708    0.39080    0.72711    1.000
    Cl17     Cl       0.52019    0.38199    0.69117    1.000
    N89      N        0.59990    0.49158    0.75317    1.000
    N90      N        0.59190    0.46257    0.72769    1.000
    N91      N        0.58200    0.48935    0.70176    1.000
    N92      N        0.58470    0.53643    0.70943    1.000
    N93      N        0.44040    0.65907    0.81556    1.000
    N94      N        0.40950    0.67851    0.84124    1.000
    N95      N        0.45190    0.68096    0.86517    1.000
    N96      N        0.51240    0.66356    0.85655    1.000
    C121     C        0.59590    0.53660    0.74107    1.000
    C122     C        0.60880    0.58080    0.76168    1.000
    C123     C        0.54730    0.59150    0.78326    1.000
    H217     H        0.50700    0.59830    0.76970    1.000
    H218     H        0.53720    0.56280    0.79680    1.000
    C124     C        0.56230    0.63550    0.80469    1.000
    H219     H        0.61580    0.59660    0.83990    1.000
    H220     H        0.66440    0.61750    0.72600    1.000
    C125     C        0.67130    0.56980    0.78313    1.000
    H221     H        0.71090    0.56210    0.76940    1.000
    H222     H        0.66170    0.54110    0.79690    1.000
    C126     C        0.50420    0.65030    0.82567    1.000
    O25      O        0.62810    0.32260    0.72770    1.000
    N97      N        0.61350    0.24360    0.74180    1.000
    C127     C        0.59370    0.28810    0.73670    1.000
    H223     H        0.54690    0.29460    0.74030    1.000
    C128     C        0.68400    0.22900    0.74240    1.000
    H224     H        0.71050    0.25090    0.72860    1.000
    H225     H        0.68810    0.19560    0.73440    1.000
    H226     H        0.70120    0.23080    0.76450    1.000
    C129     C        0.56270    0.20520    0.74740    1.000
    H227     H        0.57130    0.18960    0.76820    1.000
    H228     H        0.56560    0.18090    0.73020    1.000
    H229     H        0.51720    0.21970    0.74750    1.000
    O26      O        0.67320    0.40610    0.76340    1.000
    N98      N        0.73470    0.40580    0.80930    1.000
    C130     C        0.70010    0.38430    0.78610    1.000
    H230     H        0.69560    0.34990    0.78690    1.000
    C131     C        0.76390    0.37760    0.83590    1.000
    H231     H        0.73040    0.35390    0.84360    1.000
    H232     H        0.77610    0.39970    0.85360    1.000
    H233     H        0.80450    0.36050    0.82840    1.000
    C132     C        0.74430    0.45900    0.80840    1.000
    H234     H        0.78100    0.46700    0.79340    1.000
    H235     H        0.75620    0.47060    0.83000    1.000
    H236     H        0.70220    0.47460    0.80130    1.000
    O27      O        0.65730    0.38760    0.77190    1.000
    N99      N        0.67890    0.43750    0.81430    1.000
    C133     C        0.64510    0.41940    0.79090    1.000
    H237     H        0.60180    0.43390    0.78800    1.000
    C134     C        0.64650    0.44930    0.84520    1.000
    H238     H        0.59700    0.44880    0.84270    1.000
    H239     H        0.66090    0.48180    0.85220    1.000
    H240     H        0.66000    0.42520    0.86150    1.000
    C135     C        0.75130    0.44830    0.81320    1.000
    H241     H        0.77720    0.41790    0.81480    1.000
    H242     H        0.76320    0.46960    0.83130    1.000
    H243     H        0.76220    0.46470    0.79290    1.000
    Cl18     Cl       0.61450    0.31140    0.73560    1.000
    Cu19     Cu       0.56702    0.96137    0.15810    1.000
    Cu20     Cu       0.60708    0.89080    0.22711    1.000
    Cl19     Cl       0.52019    0.88199    0.19117    1.000
    N100     N        0.59990    0.99158    0.25317    1.000
    N101     N        0.59190    0.96257    0.22769    1.000
    N102     N        0.58200    0.98935    0.20176    1.000
    N103     N        0.58470    0.03643    0.20943    1.000
    N104     N        0.44040    0.15907    0.31556    1.000
    N105     N        0.40950    0.17851    0.34124    1.000
    N106     N        0.45190    0.18096    0.36517    1.000
    N107     N        0.51240    0.16356    0.35655    1.000
    C136     C        0.59590    0.03660    0.24107    1.000
    C137     C        0.60880    0.08080    0.26168    1.000
    C138     C        0.54730    0.09150    0.28326    1.000
    H244     H        0.50700    0.09830    0.26970    1.000
    H245     H        0.53720    0.06280    0.29680    1.000
    C139     C        0.56230    0.13550    0.30469    1.000
    H246     H        0.61580    0.09660    0.33990    1.000
    H247     H        0.66440    0.11750    0.22600    1.000
    C140     C        0.67130    0.06980    0.28313    1.000
    H248     H        0.71090    0.06210    0.26940    1.000
    H249     H        0.66170    0.04110    0.29690    1.000
    C141     C        0.50420    0.15030    0.32567    1.000
    O28      O        0.62810    0.82260    0.22770    1.000
    N108     N        0.61350    0.74360    0.24180    1.000
    C142     C        0.59370    0.78810    0.23670    1.000
    H250     H        0.54690    0.79460    0.24030    1.000
    C143     C        0.68400    0.72900    0.24240    1.000
    H251     H        0.71050    0.75090    0.22860    1.000
    H252     H        0.68810    0.69560    0.23440    1.000
    H253     H        0.70120    0.73080    0.26450    1.000
    C144     C        0.56270    0.70520    0.24740    1.000
    H254     H        0.57130    0.68960    0.26820    1.000
    H255     H        0.56560    0.68090    0.23020    1.000
    H256     H        0.51720    0.71970    0.24750    1.000
    O29      O        0.67320    0.90610    0.26340    1.000
    N109     N        0.73470    0.90580    0.30930    1.000
    C145     C        0.70010    0.88430    0.28610    1.000
    H257     H        0.69560    0.84990    0.28690    1.000
    C146     C        0.76390    0.87760    0.33590    1.000
    H258     H        0.73040    0.85390    0.34360    1.000
    H259     H        0.77610    0.89970    0.35360    1.000
    H260     H        0.80450    0.86050    0.32840    1.000
    C147     C        0.74430    0.95900    0.30840    1.000
    H261     H        0.78100    0.96700    0.29340    1.000
    H262     H        0.75620    0.97060    0.33000    1.000
    H263     H        0.70220    0.97460    0.30130    1.000
    O30      O        0.65730    0.88760    0.27190    1.000
    N110     N        0.67890    0.93750    0.31430    1.000
    C148     C        0.64510    0.91940    0.29090    1.000
    H264     H        0.60180    0.93390    0.28800    1.000
    C149     C        0.64650    0.94930    0.34520    1.000
    H265     H        0.59700    0.94880    0.34270    1.000
    H266     H        0.66090    0.98180    0.35220    1.000
    H267     H        0.66000    0.92520    0.36150    1.000
    C150     C        0.75130    0.94830    0.31320    1.000
    H268     H        0.77720    0.91790    0.31480    1.000
    H269     H        0.76320    0.96960    0.33130    1.000
    H270     H        0.76220    0.96470    0.29290    1.000
    Cl20     Cl       0.61450    0.81140    0.23560    1.000
    Cu21     Cu       0.06702    0.46137    0.15810    1.000
    Cu22     Cu       0.10708    0.39080    0.22711    1.000
    Cl21     Cl       0.02019    0.38199    0.19117    1.000
    N111     N        0.09990    0.49158    0.25317    1.000
    N112     N        0.09190    0.46257    0.22769    1.000
    N113     N        0.08200    0.48935    0.20176    1.000
    N114     N        0.08470    0.53643    0.20943    1.000
    N115     N        0.94040    0.65907    0.31556    1.000
    N116     N        0.90950    0.67851    0.34124    1.000
    N117     N        0.95190    0.68096    0.36517    1.000
    N118     N        0.01240    0.66356    0.35655    1.000
    C151     C        0.09590    0.53660    0.24107    1.000
    C152     C        0.10880    0.58080    0.26168    1.000
    C153     C        0.04730    0.59150    0.28326    1.000
    H271     H        0.00700    0.59830    0.26970    1.000
    H272     H        0.03720    0.56280    0.29680    1.000
    C154     C        0.06230    0.63550    0.30469    1.000
    H273     H        0.11580    0.59660    0.33990    1.000
    H274     H        0.16440    0.61750    0.22600    1.000
    C155     C        0.17130    0.56980    0.28313    1.000
    H275     H        0.21090    0.56210    0.26940    1.000
    H276     H        0.16170    0.54110    0.29690    1.000
    C156     C        0.00420    0.65030    0.32567    1.000
    O31      O        0.12810    0.32260    0.22770    1.000
    N119     N        0.11350    0.24360    0.24180    1.000
    C157     C        0.09370    0.28810    0.23670    1.000
    H277     H        0.04690    0.29460    0.24030    1.000
    C158     C        0.18400    0.22900    0.24240    1.000
    H278     H        0.21050    0.25090    0.22860    1.000
    H279     H        0.18810    0.19560    0.23440    1.000
    H280     H        0.20120    0.23080    0.26450    1.000
    C159     C        0.06270    0.20520    0.24740    1.000
    H281     H        0.07130    0.18960    0.26820    1.000
    H282     H        0.06560    0.18090    0.23020    1.000
    H283     H        0.01720    0.21970    0.24750    1.000
    O32      O        0.17320    0.40610    0.26340    1.000
    N120     N        0.23470    0.40580    0.30930    1.000
    C160     C        0.20010    0.38430    0.28610    1.000
    H284     H        0.19560    0.34990    0.28690    1.000
    C161     C        0.26390    0.37760    0.33590    1.000
    H285     H        0.23040    0.35390    0.34360    1.000
    H286     H        0.27610    0.39970    0.35360    1.000
    H287     H        0.30450    0.36050    0.32840    1.000
    C162     C        0.24430    0.45900    0.30840    1.000
    H288     H        0.28100    0.46700    0.29340    1.000
    H289     H        0.25620    0.47060    0.33000    1.000
    H290     H        0.20220    0.47460    0.30130    1.000
    O33      O        0.15730    0.38760    0.27190    1.000
    N121     N        0.17890    0.43750    0.31430    1.000
    C163     C        0.14510    0.41940    0.29090    1.000
    H291     H        0.10180    0.43390    0.28800    1.000
    C164     C        0.14650    0.44930    0.34520    1.000
    H292     H        0.09700    0.44880    0.34270    1.000
    H293     H        0.16090    0.48180    0.35220    1.000
    H294     H        0.16000    0.42520    0.36150    1.000
    C165     C        0.25130    0.44830    0.31320    1.000
    H295     H        0.27720    0.41790    0.31480    1.000
    H296     H        0.26320    0.46960    0.33130    1.000
    H297     H        0.26220    0.46470    0.29290    1.000
    Cl22     Cl       0.11450    0.31140    0.23560    1.000
    Cu23     Cu       0.06702    0.96137    0.65810    1.000
    Cu24     Cu       0.10708    0.89080    0.72711    1.000
    Cl23     Cl       0.02019    0.88199    0.69117    1.000
    N122     N        0.09990    0.99158    0.75317    1.000
    N123     N        0.09190    0.96257    0.72769    1.000
    N124     N        0.08200    0.98935    0.70176    1.000
    N125     N        0.08470    0.03643    0.70943    1.000
    N126     N        0.94040    0.15907    0.81556    1.000
    N127     N        0.90950    0.17851    0.84124    1.000
    N128     N        0.95190    0.18096    0.86517    1.000
    N129     N        0.01240    0.16356    0.85655    1.000
    C166     C        0.09590    0.03660    0.74107    1.000
    C167     C        0.10880    0.08080    0.76168    1.000
    C168     C        0.04730    0.09150    0.78326    1.000
    H298     H        0.00700    0.09830    0.76970    1.000
    H299     H        0.03720    0.06280    0.79680    1.000
    C169     C        0.06230    0.13550    0.80469    1.000
    H300     H        0.11580    0.09660    0.83990    1.000
    H301     H        0.16440    0.11750    0.72600    1.000
    C170     C        0.17130    0.06980    0.78313    1.000
    H302     H        0.21090    0.06210    0.76940    1.000
    H303     H        0.16170    0.04110    0.79690    1.000
    C171     C        0.00420    0.15030    0.82567    1.000
    O34      O        0.12810    0.82260    0.72770    1.000
    N130     N        0.11350    0.74360    0.74180    1.000
    C172     C        0.09370    0.78810    0.73670    1.000
    H304     H        0.04690    0.79460    0.74030    1.000
    C173     C        0.18400    0.72900    0.74240    1.000
    H305     H        0.21050    0.75090    0.72860    1.000
    H306     H        0.18810    0.69560    0.73440    1.000
    H307     H        0.20120    0.73080    0.76450    1.000
    C174     C        0.06270    0.70520    0.74740    1.000
    H308     H        0.07130    0.68960    0.76820    1.000
    H309     H        0.06560    0.68090    0.73020    1.000
    H310     H        0.01720    0.71970    0.74750    1.000
    O35      O        0.17320    0.90610    0.76340    1.000
    N131     N        0.23470    0.90580    0.80930    1.000
    C175     C        0.20010    0.88430    0.78610    1.000
    H311     H        0.19560    0.84990    0.78690    1.000
    C176     C        0.26390    0.87760    0.83590    1.000
    H312     H        0.23040    0.85390    0.84360    1.000
    H313     H        0.27610    0.89970    0.85360    1.000
    H314     H        0.30450    0.86050    0.82840    1.000
    C177     C        0.24430    0.95900    0.80840    1.000
    H315     H        0.28100    0.96700    0.79340    1.000
    H316     H        0.25620    0.97060    0.83000    1.000
    H317     H        0.20220    0.97460    0.80130    1.000
    O36      O        0.15730    0.88760    0.77190    1.000
    N132     N        0.17890    0.93750    0.81430    1.000
    C178     C        0.14510    0.91940    0.79090    1.000
    H318     H        0.10180    0.93390    0.78800    1.000
    C179     C        0.14650    0.94930    0.84520    1.000
    H319     H        0.09700    0.94880    0.84270    1.000
    H320     H        0.16090    0.98180    0.85220    1.000
    H321     H        0.16000    0.92520    0.86150    1.000
    C180     C        0.25130    0.94830    0.81320    1.000
    H322     H        0.27720    0.91790    0.81480    1.000
    H323     H        0.26320    0.96960    0.83130    1.000
    H324     H        0.26220    0.96470    0.79290    1.000
    Cl24     Cl       0.11450    0.81140    0.73560    1.000
    Cu25     Cu       0.18298    0.28863    0.65810    1.000
    Cu26     Cu       0.14292    0.35920    0.72711    1.000
    Cl25     Cl       0.22981    0.36801    0.69117    1.000
    N133     N        0.15010    0.25842    0.75317    1.000
    N134     N        0.15810    0.28743    0.72769    1.000
    N135     N        0.16800    0.26065    0.70176    1.000
    N136     N        0.16530    0.21357    0.70943    1.000
    N137     N        0.30960    0.09093    0.81556    1.000
    N138     N        0.34050    0.07149    0.84124    1.000
    N139     N        0.29810    0.06904    0.86517    1.000
    N140     N        0.23760    0.08644    0.85655    1.000
    C181     C        0.15410    0.21340    0.74107    1.000
    C182     C        0.14120    0.16920    0.76168    1.000
    C183     C        0.20270    0.15850    0.78326    1.000
    H325     H        0.24300    0.15170    0.76970    1.000
    H326     H        0.21280    0.18720    0.79680    1.000
    C184     C        0.18770    0.11450    0.80469    1.000
    H327     H        0.13420    0.15340    0.83990    1.000
    H328     H        0.08560    0.13250    0.72600    1.000
    C185     C        0.07870    0.18020    0.78313    1.000
    H329     H        0.03910    0.18790    0.76940    1.000
    H330     H        0.08830    0.20890    0.79690    1.000
    C186     C        0.24580    0.09970    0.82567    1.000
    O37      O        0.12190    0.42740    0.72770    1.000
    N141     N        0.13650    0.50640    0.74180    1.000
    C187     C        0.15630    0.46190    0.73670    1.000
    H331     H        0.20310    0.45540    0.74030    1.000
    C188     C        0.06600    0.52100    0.74240    1.000
    H332     H        0.03950    0.49910    0.72860    1.000
    H333     H        0.06190    0.55440    0.73440    1.000
    H334     H        0.04880    0.51920    0.76450    1.000
    C189     C        0.18730    0.54480    0.74740    1.000
    H335     H        0.17870    0.56040    0.76820    1.000
    H336     H        0.18440    0.56910    0.73020    1.000
    H337     H        0.23280    0.53030    0.74750    1.000
    O38      O        0.07680    0.34390    0.76340    1.000
    N142     N        0.01530    0.34420    0.80930    1.000
    C190     C        0.04990    0.36570    0.78610    1.000
    H338     H        0.05440    0.40010    0.78690    1.000
    C191     C        0.98610    0.37240    0.83590    1.000
    H339     H        0.01960    0.39610    0.84360    1.000
    H340     H        0.97390    0.35030    0.85360    1.000
    H341     H        0.94550    0.38950    0.82840    1.000
    C192     C        0.00570    0.29100    0.80840    1.000
    H342     H        0.96900    0.28300    0.79340    1.000
    H343     H        0.99380    0.27940    0.83000    1.000
    H344     H        0.04780    0.27540    0.80130    1.000
    O39      O        0.09270    0.36240    0.77190    1.000
    N143     N        0.07110    0.31250    0.81430    1.000
    C193     C        0.10490    0.33060    0.79090    1.000
    H345     H        0.14820    0.31610    0.78800    1.000
    C194     C        0.10350    0.30070    0.84520    1.000
    H346     H        0.15300    0.30120    0.84270    1.000
    H347     H        0.08910    0.26820    0.85220    1.000
    H348     H        0.09000    0.32480    0.86150    1.000
    C195     C        0.99870    0.30170    0.81320    1.000
    H349     H        0.97280    0.33210    0.81480    1.000
    H350     H        0.98680    0.28040    0.83130    1.000
    H351     H        0.98780    0.28530    0.79290    1.000
    Cl26     Cl       0.13550    0.43860    0.73560    1.000
    Cu27     Cu       0.18298    0.78863    0.15810    1.000
    Cu28     Cu       0.14292    0.85920    0.22711    1.000
    Cl27     Cl       0.22981    0.86801    0.19117    1.000
    N144     N        0.15010    0.75842    0.25317    1.000
    N145     N        0.15810    0.78743    0.22769    1.000
    N146     N        0.16800    0.76065    0.20176    1.000
    N147     N        0.16530    0.71357    0.20943    1.000
    N148     N        0.30960    0.59093    0.31556    1.000
    N149     N        0.34050    0.57149    0.34124    1.000
    N150     N        0.29810    0.56904    0.36517    1.000
    N151     N        0.23760    0.58644    0.35655    1.000
    C196     C        0.15410    0.71340    0.24107    1.000
    C197     C        0.14120    0.66920    0.26168    1.000
    C198     C        0.20270    0.65850    0.28326    1.000
    H352     H        0.24300    0.65170    0.26970    1.000
    H353     H        0.21280    0.68720    0.29680    1.000
    C199     C        0.18770    0.61450    0.30469    1.000
    H354     H        0.13420    0.65340    0.33990    1.000
    H355     H        0.08560    0.63250    0.22600    1.000
    C200     C        0.07870    0.68020    0.28313    1.000
    H356     H        0.03910    0.68790    0.26940    1.000
    H357     H        0.08830    0.70890    0.29690    1.000
    C201     C        0.24580    0.59970    0.32567    1.000
    O40      O        0.12190    0.92740    0.22770    1.000
    N152     N        0.13650    0.00640    0.24180    1.000
    C202     C        0.15630    0.96190    0.23670    1.000
    H358     H        0.20310    0.95540    0.24030    1.000
    C203     C        0.06600    0.02100    0.24240    1.000
    H359     H        0.03950    0.99910    0.22860    1.000
    H360     H        0.06190    0.05440    0.23440    1.000
    H361     H        0.04880    0.01920    0.26450    1.000
    C204     C        0.18730    0.04480    0.24740    1.000
    H362     H        0.17870    0.06040    0.26820    1.000
    H363     H        0.18440    0.06910    0.23020    1.000
    H364     H        0.23280    0.03030    0.24750    1.000
    O41      O        0.07680    0.84390    0.26340    1.000
    N153     N        0.01530    0.84420    0.30930    1.000
    C205     C        0.04990    0.86570    0.28610    1.000
    H365     H        0.05440    0.90010    0.28690    1.000
    C206     C        0.98610    0.87240    0.33590    1.000
    H366     H        0.01960    0.89610    0.34360    1.000
    H367     H        0.97390    0.85030    0.35360    1.000
    H368     H        0.94550    0.88950    0.32840    1.000
    C207     C        0.00570    0.79100    0.30840    1.000
    H369     H        0.96900    0.78300    0.29340    1.000
    H370     H        0.99380    0.77940    0.33000    1.000
    H371     H        0.04780    0.77540    0.30130    1.000
    O42      O        0.09270    0.86240    0.27190    1.000
    N154     N        0.07110    0.81250    0.31430    1.000
    C208     C        0.10490    0.83060    0.29090    1.000
    H372     H        0.14820    0.81610    0.28800    1.000
    C209     C        0.10350    0.80070    0.34520    1.000
    H373     H        0.15300    0.80120    0.34270    1.000
    H374     H        0.08910    0.76820    0.35220    1.000
    H375     H        0.09000    0.82480    0.36150    1.000
    C210     C        0.99870    0.80170    0.31320    1.000
    H376     H        0.97280    0.83210    0.31480    1.000
    H377     H        0.98680    0.78040    0.33130    1.000
    H378     H        0.98780    0.78530    0.29290    1.000
    Cl28     Cl       0.13550    0.93860    0.23560    1.000
    Cu29     Cu       0.68298    0.28863    0.15810    1.000
    Cu30     Cu       0.64292    0.35920    0.22711    1.000
    Cl29     Cl       0.72981    0.36801    0.19117    1.000
    N155     N        0.65010    0.25842    0.25317    1.000
    N156     N        0.65810    0.28743    0.22769    1.000
    N157     N        0.66800    0.26065    0.20176    1.000
    N158     N        0.66530    0.21357    0.20943    1.000
    N159     N        0.80960    0.09093    0.31556    1.000
    N160     N        0.84050    0.07149    0.34124    1.000
    N161     N        0.79810    0.06904    0.36517    1.000
    N162     N        0.73760    0.08644    0.35655    1.000
    C211     C        0.65410    0.21340    0.24107    1.000
    C212     C        0.64120    0.16920    0.26168    1.000
    C213     C        0.70270    0.15850    0.28326    1.000
    H379     H        0.74300    0.15170    0.26970    1.000
    H380     H        0.71280    0.18720    0.29680    1.000
    C214     C        0.68770    0.11450    0.30469    1.000
    H381     H        0.63420    0.15340    0.33990    1.000
    H382     H        0.58560    0.13250    0.22600    1.000
    C215     C        0.57870    0.18020    0.28313    1.000
    H383     H        0.53910    0.18790    0.26940    1.000
    H384     H        0.58830    0.20890    0.29690    1.000
    C216     C        0.74580    0.09970    0.32567    1.000
    O43      O        0.62190    0.42740    0.22770    1.000
    N163     N        0.63650    0.50640    0.24180    1.000
    C217     C        0.65630    0.46190    0.23670    1.000
    H385     H        0.70310    0.45540    0.24030    1.000
    C218     C        0.56600    0.52100    0.24240    1.000
    H386     H        0.53950    0.49910    0.22860    1.000
    H387     H        0.56190    0.55440    0.23440    1.000
    H388     H        0.54880    0.51920    0.26450    1.000
    C219     C        0.68730    0.54480    0.24740    1.000
    H389     H        0.67870    0.56040    0.26820    1.000
    H390     H        0.68440    0.56910    0.23020    1.000
    H391     H        0.73280    0.53030    0.24750    1.000
    O44      O        0.57680    0.34390    0.26340    1.000
    N164     N        0.51530    0.34420    0.30930    1.000
    C220     C        0.54990    0.36570    0.28610    1.000
    H392     H        0.55440    0.40010    0.28690    1.000
    C221     C        0.48610    0.37240    0.33590    1.000
    H393     H        0.51960    0.39610    0.34360    1.000
    H394     H        0.47390    0.35030    0.35360    1.000
    H395     H        0.44550    0.38950    0.32840    1.000
    C222     C        0.50570    0.29100    0.30840    1.000
    H396     H        0.46900    0.28300    0.29340    1.000
    H397     H        0.49380    0.27940    0.33000    1.000
    H398     H        0.54780    0.27540    0.30130    1.000
    O45      O        0.59270    0.36240    0.27190    1.000
    N165     N        0.57110    0.31250    0.31430    1.000
    C223     C        0.60490    0.33060    0.29090    1.000
    H399     H        0.64820    0.31610    0.28800    1.000
    C224     C        0.60350    0.30070    0.34520    1.000
    H400     H        0.65300    0.30120    0.34270    1.000
    H401     H        0.58910    0.26820    0.35220    1.000
    H402     H        0.59000    0.32480    0.36150    1.000
    C225     C        0.49870    0.30170    0.31320    1.000
    H403     H        0.47280    0.33210    0.31480    1.000
    H404     H        0.48680    0.28040    0.33130    1.000
    H405     H        0.48780    0.28530    0.29290    1.000
    Cl30     Cl       0.63550    0.43860    0.23560    1.000
    Cu31     Cu       0.68298    0.78863    0.65810    1.000
    Cu32     Cu       0.64292    0.85920    0.72711    1.000
    Cl31     Cl       0.72981    0.86801    0.69117    1.000
    N166     N        0.65010    0.75842    0.75317    1.000
    N167     N        0.65810    0.78743    0.72769    1.000
    N168     N        0.66800    0.76065    0.70176    1.000
    N169     N        0.66530    0.71357    0.70943    1.000
    N170     N        0.80960    0.59093    0.81556    1.000
    N171     N        0.84050    0.57149    0.84124    1.000
    N172     N        0.79810    0.56904    0.86517    1.000
    N173     N        0.73760    0.58644    0.85655    1.000
    C226     C        0.65410    0.71340    0.74107    1.000
    C227     C        0.64120    0.66920    0.76168    1.000
    C228     C        0.70270    0.65850    0.78326    1.000
    H406     H        0.74300    0.65170    0.76970    1.000
    H407     H        0.71280    0.68720    0.79680    1.000
    C229     C        0.68770    0.61450    0.80469    1.000
    H408     H        0.63420    0.65340    0.83990    1.000
    H409     H        0.58560    0.63250    0.72600    1.000
    C230     C        0.57870    0.68020    0.78313    1.000
    H410     H        0.53910    0.68790    0.76940    1.000
    H411     H        0.58830    0.70890    0.79690    1.000
    C231     C        0.74580    0.59970    0.82567    1.000
    O46      O        0.62190    0.92740    0.72770    1.000
    N174     N        0.63650    0.00640    0.74180    1.000
    C232     C        0.65630    0.96190    0.73670    1.000
    H412     H        0.70310    0.95540    0.74030    1.000
    C233     C        0.56600    0.02100    0.74240    1.000
    H413     H        0.53950    0.99910    0.72860    1.000
    H414     H        0.56190    0.05440    0.73440    1.000
    H415     H        0.54880    0.01920    0.76450    1.000
    C234     C        0.68730    0.04480    0.74740    1.000
    H416     H        0.67870    0.06040    0.76820    1.000
    H417     H        0.68440    0.06910    0.73020    1.000
    H418     H        0.73280    0.03030    0.74750    1.000
    O47      O        0.57680    0.84390    0.76340    1.000
    N175     N        0.51530    0.84420    0.80930    1.000
    C235     C        0.54990    0.86570    0.78610    1.000
    H419     H        0.55440    0.90010    0.78690    1.000
    C236     C        0.48610    0.87240    0.83590    1.000
    H420     H        0.51960    0.89610    0.84360    1.000
    H421     H        0.47390    0.85030    0.85360    1.000
    H422     H        0.44550    0.88950    0.82840    1.000
    C237     C        0.50570    0.79100    0.80840    1.000
    H423     H        0.46900    0.78300    0.79340    1.000
    H424     H        0.49380    0.77940    0.83000    1.000
    H425     H        0.54780    0.77540    0.80130    1.000
    O48      O        0.59270    0.86240    0.77190    1.000
    N176     N        0.57110    0.81250    0.81430    1.000
    C238     C        0.60490    0.83060    0.79090    1.000
    H426     H        0.64820    0.81610    0.78800    1.000
    C239     C        0.60350    0.80070    0.84520    1.000
    H427     H        0.65300    0.80120    0.84270    1.000
    H428     H        0.58910    0.76820    0.85220    1.000
    H429     H        0.59000    0.82480    0.86150    1.000
    C240     C        0.49870    0.80170    0.81320    1.000
    H430     H        0.47280    0.83210    0.81480    1.000
    H431     H        0.48680    0.78040    0.83130    1.000
    H432     H        0.48780    0.78530    0.79290    1.000
    Cl32     Cl       0.63550    0.93860    0.73560    1.000
    Cu33     Cu       0.81702    0.53863    0.90810    1.000
    Cu34     Cu       0.85708    0.60920    0.97711    1.000
    Cl33     Cl       0.77019    0.61801    0.94117    1.000
    N177     N        0.84990    0.50842    0.00317    1.000
    N178     N        0.84190    0.53743    0.97769    1.000
    N179     N        0.83200    0.51065    0.95176    1.000
    N180     N        0.83470    0.46357    0.95943    1.000
    N181     N        0.69040    0.34093    0.06556    1.000
    N182     N        0.65950    0.32149    0.09124    1.000
    N183     N        0.70190    0.31904    0.11517    1.000
    N184     N        0.76240    0.33644    0.10655    1.000
    C241     C        0.84590    0.46340    0.99107    1.000
    C242     C        0.85880    0.41920    0.01168    1.000
    C243     C        0.79730    0.40850    0.03326    1.000
    H433     H        0.75700    0.40170    0.01970    1.000
    H434     H        0.78720    0.43720    0.04680    1.000
    C244     C        0.81230    0.36450    0.05469    1.000
    H435     H        0.86580    0.40340    0.08990    1.000
    H436     H        0.91440    0.38250    0.97600    1.000
    C245     C        0.92130    0.43020    0.03313    1.000
    H437     H        0.96090    0.43790    0.01940    1.000
    H438     H        0.91170    0.45890    0.04690    1.000
    C246     C        0.75420    0.34970    0.07567    1.000
    O49      O        0.87810    0.67740    0.97770    1.000
    N185     N        0.86350    0.75640    0.99180    1.000
    C247     C        0.84370    0.71190    0.98670    1.000
    H439     H        0.79690    0.70540    0.99030    1.000
    C248     C        0.93400    0.77100    0.99240    1.000
    H440     H        0.96050    0.74910    0.97860    1.000
    H441     H        0.93810    0.80440    0.98440    1.000
    H442     H        0.95120    0.76920    0.01450    1.000
    C249     C        0.81270    0.79480    0.99740    1.000
    H443     H        0.82130    0.81040    0.01820    1.000
    H444     H        0.81560    0.81910    0.98020    1.000
    H445     H        0.76720    0.78030    0.99750    1.000
    O50      O        0.92320    0.59390    0.01340    1.000
    N186     N        0.98470    0.59420    0.05930    1.000
    C250     C        0.95010    0.61570    0.03610    1.000
    H446     H        0.94560    0.65010    0.03690    1.000
    C251     C        0.01390    0.62240    0.08590    1.000
    H447     H        0.98040    0.64610    0.09360    1.000
    H448     H        0.02610    0.60030    0.10360    1.000
    H449     H        0.05450    0.63950    0.07840    1.000
    C252     C        0.99430    0.54100    0.05840    1.000
    H450     H        0.03100    0.53300    0.04340    1.000
    H451     H        0.00620    0.52940    0.08000    1.000
    H452     H        0.95220    0.52540    0.05130    1.000
    O51      O        0.90730    0.61240    0.02190    1.000
    N187     N        0.92890    0.56250    0.06430    1.000
    C253     C        0.89510    0.58060    0.04090    1.000
    H453     H        0.85180    0.56610    0.03800    1.000
    C254     C        0.89650    0.55070    0.09520    1.000
    H454     H        0.84700    0.55120    0.09270    1.000
    H455     H        0.91090    0.51820    0.10220    1.000
    H456     H        0.91000    0.57480    0.11150    1.000
    C255     C        0.00130    0.55170    0.06320    1.000
    H457     H        0.02720    0.58210    0.06480    1.000
    H458     H        0.01320    0.53040    0.08130    1.000
    H459     H        0.01220    0.53530    0.04290    1.000
    Cl34     Cl       0.86450    0.68860    0.98560    1.000
    Cu35     Cu       0.81702    0.03863    0.40810    1.000
    Cu36     Cu       0.85708    0.10920    0.47711    1.000
    Cl35     Cl       0.77019    0.11801    0.44117    1.000
    N188     N        0.84990    0.00842    0.50317    1.000
    N189     N        0.84190    0.03743    0.47769    1.000
    N190     N        0.83200    0.01065    0.45176    1.000
    N191     N        0.83470    0.96357    0.45943    1.000
    N192     N        0.69040    0.84093    0.56556    1.000
    N193     N        0.65950    0.82149    0.59124    1.000
    N194     N        0.70190    0.81904    0.61517    1.000
    N195     N        0.76240    0.83644    0.60655    1.000
    C256     C        0.84590    0.96340    0.49107    1.000
    C257     C        0.85880    0.91920    0.51168    1.000
    C258     C        0.79730    0.90850    0.53326    1.000
    H460     H        0.75700    0.90170    0.51970    1.000
    H461     H        0.78720    0.93720    0.54680    1.000
    C259     C        0.81230    0.86450    0.55469    1.000
    H462     H        0.86580    0.90340    0.58990    1.000
    H463     H        0.91440    0.88250    0.47600    1.000
    C260     C        0.92130    0.93020    0.53313    1.000
    H464     H        0.96090    0.93790    0.51940    1.000
    H465     H        0.91170    0.95890    0.54690    1.000
    C261     C        0.75420    0.84970    0.57567    1.000
    O52      O        0.87810    0.17740    0.47770    1.000
    N196     N        0.86350    0.25640    0.49180    1.000
    C262     C        0.84370    0.21190    0.48670    1.000
    H466     H        0.79690    0.20540    0.49030    1.000
    C263     C        0.93400    0.27100    0.49240    1.000
    H467     H        0.96050    0.24910    0.47860    1.000
    H468     H        0.93810    0.30440    0.48440    1.000
    H469     H        0.95120    0.26920    0.51450    1.000
    C264     C        0.81270    0.29480    0.49740    1.000
    H470     H        0.82130    0.31040    0.51820    1.000
    H471     H        0.81560    0.31910    0.48020    1.000
    H472     H        0.76720    0.28030    0.49750    1.000
    O53      O        0.92320    0.09390    0.51340    1.000
    N197     N        0.98470    0.09420    0.55930    1.000
    C265     C        0.95010    0.11570    0.53610    1.000
    H473     H        0.94560    0.15010    0.53690    1.000
    C266     C        0.01390    0.12240    0.58590    1.000
    H474     H        0.98040    0.14610    0.59360    1.000
    H475     H        0.02610    0.10030    0.60360    1.000
    H476     H        0.05450    0.13950    0.57840    1.000
    C267     C        0.99430    0.04100    0.55840    1.000
    H477     H        0.03100    0.03300    0.54340    1.000
    H478     H        0.00620    0.02940    0.58000    1.000
    H479     H        0.95220    0.02540    0.55130    1.000
    O54      O        0.90730    0.11240    0.52190    1.000
    N198     N        0.92890    0.06250    0.56430    1.000
    C268     C        0.89510    0.08060    0.54090    1.000
    H480     H        0.85180    0.06610    0.53800    1.000
    C269     C        0.89650    0.05070    0.59520    1.000
    H481     H        0.84700    0.05120    0.59270    1.000
    H482     H        0.91090    0.01820    0.60220    1.000
    H483     H        0.91000    0.07480    0.61150    1.000
    C270     C        0.00130    0.05170    0.56320    1.000
    H484     H        0.02720    0.08210    0.56480    1.000
    H485     H        0.01320    0.03040    0.58130    1.000
    H486     H        0.01220    0.03530    0.54290    1.000
    Cl36     Cl       0.86450    0.18860    0.48560    1.000
    Cu37     Cu       0.31702    0.53863    0.40810    1.000
    Cu38     Cu       0.35708    0.60920    0.47711    1.000
    Cl37     Cl       0.27019    0.61801    0.44117    1.000
    N199     N        0.34990    0.50842    0.50317    1.000
    N200     N        0.34190    0.53743    0.47769    1.000
    N201     N        0.33200    0.51065    0.45176    1.000
    N202     N        0.33470    0.46357    0.45943    1.000
    N203     N        0.19040    0.34093    0.56556    1.000
    N204     N        0.15950    0.32149    0.59124    1.000
    N205     N        0.20190    0.31904    0.61517    1.000
    N206     N        0.26240    0.33644    0.60655    1.000
    C271     C        0.34590    0.46340    0.49107    1.000
    C272     C        0.35880    0.41920    0.51168    1.000
    C273     C        0.29730    0.40850    0.53326    1.000
    H487     H        0.25700    0.40170    0.51970    1.000
    H488     H        0.28720    0.43720    0.54680    1.000
    C274     C        0.31230    0.36450    0.55469    1.000
    H489     H        0.36580    0.40340    0.58990    1.000
    H490     H        0.41440    0.38250    0.47600    1.000
    C275     C        0.42130    0.43020    0.53313    1.000
    H491     H        0.46090    0.43790    0.51940    1.000
    H492     H        0.41170    0.45890    0.54690    1.000
    C276     C        0.25420    0.34970    0.57567    1.000
    O55      O        0.37810    0.67740    0.47770    1.000
    N207     N        0.36350    0.75640    0.49180    1.000
    C277     C        0.34370    0.71190    0.48670    1.000
    H493     H        0.29690    0.70540    0.49030    1.000
    C278     C        0.43400    0.77100    0.49240    1.000
    H494     H        0.46050    0.74910    0.47860    1.000
    H495     H        0.43810    0.80440    0.48440    1.000
    H496     H        0.45120    0.76920    0.51450    1.000
    C279     C        0.31270    0.79480    0.49740    1.000
    H497     H        0.32130    0.81040    0.51820    1.000
    H498     H        0.31560    0.81910    0.48020    1.000
    H499     H        0.26720    0.78030    0.49750    1.000
    O56      O        0.42320    0.59390    0.51340    1.000
    N208     N        0.48470    0.59420    0.55930    1.000
    C280     C        0.45010    0.61570    0.53610    1.000
    H500     H        0.44560    0.65010    0.53690    1.000
    C281     C        0.51390    0.62240    0.58590    1.000
    H501     H        0.48040    0.64610    0.59360    1.000
    H502     H        0.52610    0.60030    0.60360    1.000
    H503     H        0.55450    0.63950    0.57840    1.000
    C282     C        0.49430    0.54100    0.55840    1.000
    H504     H        0.53100    0.53300    0.54340    1.000
    H505     H        0.50620    0.52940    0.58000    1.000
    H506     H        0.45220    0.52540    0.55130    1.000
    O57      O        0.40730    0.61240    0.52190    1.000
    N209     N        0.42890    0.56250    0.56430    1.000
    C283     C        0.39510    0.58060    0.54090    1.000
    H507     H        0.35180    0.56610    0.53800    1.000
    C284     C        0.39650    0.55070    0.59520    1.000
    H508     H        0.34700    0.55120    0.59270    1.000
    H509     H        0.41090    0.51820    0.60220    1.000
    H510     H        0.41000    0.57480    0.61150    1.000
    C285     C        0.50130    0.55170    0.56320    1.000
    H511     H        0.52720    0.58210    0.56480    1.000
    H512     H        0.51320    0.53040    0.58130    1.000
    H513     H        0.51220    0.53530    0.54290    1.000
    Cl38     Cl       0.36450    0.68860    0.48560    1.000
    Cu39     Cu       0.31702    0.03863    0.90810    1.000
    Cu40     Cu       0.35708    0.10920    0.97711    1.000
    Cl39     Cl       0.27019    0.11801    0.94117    1.000
    N210     N        0.34990    0.00842    0.00317    1.000
    N211     N        0.34190    0.03743    0.97769    1.000
    N212     N        0.33200    0.01065    0.95176    1.000
    N213     N        0.33470    0.96357    0.95943    1.000
    N214     N        0.19040    0.84093    0.06556    1.000
    N215     N        0.15950    0.82149    0.09124    1.000
    N216     N        0.20190    0.81904    0.11517    1.000
    N217     N        0.26240    0.83644    0.10655    1.000
    C286     C        0.34590    0.96340    0.99107    1.000
    C287     C        0.35880    0.91920    0.01168    1.000
    C288     C        0.29730    0.90850    0.03326    1.000
    H514     H        0.25700    0.90170    0.01970    1.000
    H515     H        0.28720    0.93720    0.04680    1.000
    C289     C        0.31230    0.86450    0.05469    1.000
    H516     H        0.36580    0.90340    0.08990    1.000
    H517     H        0.41440    0.88250    0.97600    1.000
    C290     C        0.42130    0.93020    0.03313    1.000
    H518     H        0.46090    0.93790    0.01940    1.000
    H519     H        0.41170    0.95890    0.04690    1.000
    C291     C        0.25420    0.84970    0.07567    1.000
    O58      O        0.37810    0.17740    0.97770    1.000
    N218     N        0.36350    0.25640    0.99180    1.000
    C292     C        0.34370    0.21190    0.98670    1.000
    H520     H        0.29690    0.20540    0.99030    1.000
    C293     C        0.43400    0.27100    0.99240    1.000
    H521     H        0.46050    0.24910    0.97860    1.000
    H522     H        0.43810    0.30440    0.98440    1.000
    H523     H        0.45120    0.26920    0.01450    1.000
    C294     C        0.31270    0.29480    0.99740    1.000
    H524     H        0.32130    0.31040    0.01820    1.000
    H525     H        0.31560    0.31910    0.98020    1.000
    H526     H        0.26720    0.28030    0.99750    1.000
    O59      O        0.42320    0.09390    0.01340    1.000
    N219     N        0.48470    0.09420    0.05930    1.000
    C295     C        0.45010    0.11570    0.03610    1.000
    H527     H        0.44560    0.15010    0.03690    1.000
    C296     C        0.51390    0.12240    0.08590    1.000
    H528     H        0.48040    0.14610    0.09360    1.000
    H529     H        0.52610    0.10030    0.10360    1.000
    H530     H        0.55450    0.13950    0.07840    1.000
    C297     C        0.49430    0.04100    0.05840    1.000
    H531     H        0.53100    0.03300    0.04340    1.000
    H532     H        0.50620    0.02940    0.08000    1.000
    H533     H        0.45220    0.02540    0.05130    1.000
    O60      O        0.40730    0.11240    0.02190    1.000
    N220     N        0.42890    0.06250    0.06430    1.000
    C298     C        0.39510    0.08060    0.04090    1.000
    H534     H        0.35180    0.06610    0.03800    1.000
    C299     C        0.39650    0.05070    0.09520    1.000
    H535     H        0.34700    0.05120    0.09270    1.000
    H536     H        0.41090    0.01820    0.10220    1.000
    H537     H        0.41000    0.07480    0.11150    1.000
    C300     C        0.50130    0.05170    0.06320    1.000
    H538     H        0.52720    0.08210    0.06480    1.000
    H539     H        0.51320    0.03040    0.08130    1.000
    H540     H        0.51220    0.03530    0.04290    1.000
    Cl40     Cl       0.36450    0.18860    0.98560    1.000
    Cu41     Cu       0.43298    0.71137    0.90810    1.000
    Cu42     Cu       0.39292    0.64080    0.97711    1.000
    Cl41     Cl       0.47981    0.63199    0.94117    1.000
    N221     N        0.40010    0.74158    0.00317    1.000
    N222     N        0.40810    0.71257    0.97769    1.000
    N223     N        0.41800    0.73935    0.95176    1.000
    N224     N        0.41530    0.78643    0.95943    1.000
    N225     N        0.55960    0.90907    0.06556    1.000
    N226     N        0.59050    0.92851    0.09124    1.000
    N227     N        0.54810    0.93096    0.11517    1.000
    N228     N        0.48760    0.91356    0.10655    1.000
    C301     C        0.40410    0.78660    0.99107    1.000
    C302     C        0.39120    0.83080    0.01168    1.000
    C303     C        0.45270    0.84150    0.03326    1.000
    H541     H        0.49300    0.84830    0.01970    1.000
    H542     H        0.46280    0.81280    0.04680    1.000
    C304     C        0.43770    0.88550    0.05469    1.000
    H543     H        0.38420    0.84660    0.08990    1.000
    H544     H        0.33560    0.86750    0.97600    1.000
    C305     C        0.32870    0.81980    0.03313    1.000
    H545     H        0.28910    0.81210    0.01940    1.000
    H546     H        0.33830    0.79110    0.04690    1.000
    C306     C        0.49580    0.90030    0.07567    1.000
    O61      O        0.37190    0.57260    0.97770    1.000
    N229     N        0.38650    0.49360    0.99180    1.000
    C307     C        0.40630    0.53810    0.98670    1.000
    H547     H        0.45310    0.54460    0.99030    1.000
    C308     C        0.31600    0.47900    0.99240    1.000
    H548     H        0.28950    0.50090    0.97860    1.000
    H549     H        0.31190    0.44560    0.98440    1.000
    H550     H        0.29880    0.48080    0.01450    1.000
    C309     C        0.43730    0.45520    0.99740    1.000
    H551     H        0.42870    0.43960    0.01820    1.000
    H552     H        0.43440    0.43090    0.98020    1.000
    H553     H        0.48280    0.46970    0.99750    1.000
    O62      O        0.32680    0.65610    0.01340    1.000
    N230     N        0.26530    0.65580    0.05930    1.000
    C310     C        0.29990    0.63430    0.03610    1.000
    H554     H        0.30440    0.59990    0.03690    1.000
    C311     C        0.23610    0.62760    0.08590    1.000
    H555     H        0.26960    0.60390    0.09360    1.000
    H556     H        0.22390    0.64970    0.10360    1.000
    H557     H        0.19550    0.61050    0.07840    1.000
    C312     C        0.25570    0.70900    0.05840    1.000
    H558     H        0.21900    0.71700    0.04340    1.000
    H559     H        0.24380    0.72060    0.08000    1.000
    H560     H        0.29780    0.72460    0.05130    1.000
    O63      O        0.34270    0.63760    0.02190    1.000
    N231     N        0.32110    0.68750    0.06430    1.000
    C313     C        0.35490    0.66940    0.04090    1.000
    H561     H        0.39820    0.68390    0.03800    1.000
    C314     C        0.35350    0.69930    0.09520    1.000
    H562     H        0.40300    0.69880    0.09270    1.000
    H563     H        0.33910    0.73180    0.10220    1.000
    H564     H        0.34000    0.67520    0.11150    1.000
    C315     C        0.24870    0.69830    0.06320    1.000
    H565     H        0.22280    0.66790    0.06480    1.000
    H566     H        0.23680    0.71960    0.08130    1.000
    H567     H        0.23780    0.71470    0.04290    1.000
    Cl42     Cl       0.38550    0.56140    0.98560    1.000
    Cu43     Cu       0.43298    0.21137    0.40810    1.000
    Cu44     Cu       0.39292    0.14080    0.47711    1.000
    Cl43     Cl       0.47981    0.13199    0.44117    1.000
    N232     N        0.40010    0.24158    0.50317    1.000
    N233     N        0.40810    0.21257    0.47769    1.000
    N234     N        0.41800    0.23935    0.45176    1.000
    N235     N        0.41530    0.28643    0.45943    1.000
    N236     N        0.55960    0.40907    0.56556    1.000
    N237     N        0.59050    0.42851    0.59124    1.000
    N238     N        0.54810    0.43096    0.61517    1.000
    N239     N        0.48760    0.41356    0.60655    1.000
    C316     C        0.40410    0.28660    0.49107    1.000
    C317     C        0.39120    0.33080    0.51168    1.000
    C318     C        0.45270    0.34150    0.53326    1.000
    H568     H        0.49300    0.34830    0.51970    1.000
    H569     H        0.46280    0.31280    0.54680    1.000
    C319     C        0.43770    0.38550    0.55469    1.000
    H570     H        0.38420    0.34660    0.58990    1.000
    H571     H        0.33560    0.36750    0.47600    1.000
    C320     C        0.32870    0.31980    0.53313    1.000
    H572     H        0.28910    0.31210    0.51940    1.000
    H573     H        0.33830    0.29110    0.54690    1.000
    C321     C        0.49580    0.40030    0.57567    1.000
    O64      O        0.37190    0.07260    0.47770    1.000
    N240     N        0.38650    0.99360    0.49180    1.000
    C322     C        0.40630    0.03810    0.48670    1.000
    H574     H        0.45310    0.04460    0.49030    1.000
    C323     C        0.31600    0.97900    0.49240    1.000
    H575     H        0.28950    0.00090    0.47860    1.000
    H576     H        0.31190    0.94560    0.48440    1.000
    H577     H        0.29880    0.98080    0.51450    1.000
    C324     C        0.43730    0.95520    0.49740    1.000
    H578     H        0.42870    0.93960    0.51820    1.000
    H579     H        0.43440    0.93090    0.48020    1.000
    H580     H        0.48280    0.96970    0.49750    1.000
    O65      O        0.32680    0.15610    0.51340    1.000
    N241     N        0.26530    0.15580    0.55930    1.000
    C325     C        0.29990    0.13430    0.53610    1.000
    H581     H        0.30440    0.09990    0.53690    1.000
    C326     C        0.23610    0.12760    0.58590    1.000
    H582     H        0.26960    0.10390    0.59360    1.000
    H583     H        0.22390    0.14970    0.60360    1.000
    H584     H        0.19550    0.11050    0.57840    1.000
    C327     C        0.25570    0.20900    0.55840    1.000
    H585     H        0.21900    0.21700    0.54340    1.000
    H586     H        0.24380    0.22060    0.58000    1.000
    H587     H        0.29780    0.22460    0.55130    1.000
    O66      O        0.34270    0.13760    0.52190    1.000
    N242     N        0.32110    0.18750    0.56430    1.000
    C328     C        0.35490    0.16940    0.54090    1.000
    H588     H        0.39820    0.18390    0.53800    1.000
    C329     C        0.35350    0.19930    0.59520    1.000
    H589     H        0.40300    0.19880    0.59270    1.000
    H590     H        0.33910    0.23180    0.60220    1.000
    H591     H        0.34000    0.17520    0.61150    1.000
    C330     C        0.24870    0.19830    0.56320    1.000
    H592     H        0.22280    0.16790    0.56480    1.000
    H593     H        0.23680    0.21960    0.58130    1.000
    H594     H        0.23780    0.21470    0.54290    1.000
    Cl44     Cl       0.38550    0.06140    0.48560    1.000
    Cu45     Cu       0.93298    0.71137    0.40810    1.000
    Cu46     Cu       0.89292    0.64080    0.47711    1.000
    Cl45     Cl       0.97981    0.63199    0.44117    1.000
    N243     N        0.90010    0.74158    0.50317    1.000
    N244     N        0.90810    0.71257    0.47769    1.000
    N245     N        0.91800    0.73935    0.45176    1.000
    N246     N        0.91530    0.78643    0.45943    1.000
    N247     N        0.05960    0.90907    0.56556    1.000
    N248     N        0.09050    0.92851    0.59124    1.000
    N249     N        0.04810    0.93096    0.61517    1.000
    N250     N        0.98760    0.91356    0.60655    1.000
    C331     C        0.90410    0.78660    0.49107    1.000
    C332     C        0.89120    0.83080    0.51168    1.000
    C333     C        0.95270    0.84150    0.53326    1.000
    H595     H        0.99300    0.84830    0.51970    1.000
    H596     H        0.96280    0.81280    0.54680    1.000
    C334     C        0.93770    0.88550    0.55469    1.000
    H597     H        0.88420    0.84660    0.58990    1.000
    H598     H        0.83560    0.86750    0.47600    1.000
    C335     C        0.82870    0.81980    0.53313    1.000
    H599     H        0.78910    0.81210    0.51940    1.000
    H600     H        0.83830    0.79110    0.54690    1.000
    C336     C        0.99580    0.90030    0.57567    1.000
    O67      O        0.87190    0.57260    0.47770    1.000
    N251     N        0.88650    0.49360    0.49180    1.000
    C337     C        0.90630    0.53810    0.48670    1.000
    H601     H        0.95310    0.54460    0.49030    1.000
    C338     C        0.81600    0.47900    0.49240    1.000
    H602     H        0.78950    0.50090    0.47860    1.000
    H603     H        0.81190    0.44560    0.48440    1.000
    H604     H        0.79880    0.48080    0.51450    1.000
    C339     C        0.93730    0.45520    0.49740    1.000
    H605     H        0.92870    0.43960    0.51820    1.000
    H606     H        0.93440    0.43090    0.48020    1.000
    H607     H        0.98280    0.46970    0.49750    1.000
    O68      O        0.82680    0.65610    0.51340    1.000
    N252     N        0.76530    0.65580    0.55930    1.000
    C340     C        0.79990    0.63430    0.53610    1.000
    H608     H        0.80440    0.59990    0.53690    1.000
    C341     C        0.73610    0.62760    0.58590    1.000
    H609     H        0.76960    0.60390    0.59360    1.000
    H610     H        0.72390    0.64970    0.60360    1.000
    H611     H        0.69550    0.61050    0.57840    1.000
    C342     C        0.75570    0.70900    0.55840    1.000
    H612     H        0.71900    0.71700    0.54340    1.000
    H613     H        0.74380    0.72060    0.58000    1.000
    H614     H        0.79780    0.72460    0.55130    1.000
    O69      O        0.84270    0.63760    0.52190    1.000
    N253     N        0.82110    0.68750    0.56430    1.000
    C343     C        0.85490    0.66940    0.54090    1.000
    H615     H        0.89820    0.68390    0.53800    1.000
    C344     C        0.85350    0.69930    0.59520    1.000
    H616     H        0.90300    0.69880    0.59270    1.000
    H617     H        0.83910    0.73180    0.60220    1.000
    H618     H        0.84000    0.67520    0.61150    1.000
    C345     C        0.74870    0.69830    0.56320    1.000
    H619     H        0.72280    0.66790    0.56480    1.000
    H620     H        0.73680    0.71960    0.58130    1.000
    H621     H        0.73780    0.71470    0.54290    1.000
    Cl46     Cl       0.88550    0.56140    0.48560    1.000
    Cu47     Cu       0.93298    0.21137    0.90810    1.000
    Cu48     Cu       0.89292    0.14080    0.97711    1.000
    Cl47     Cl       0.97981    0.13199    0.94117    1.000
    N254     N        0.90010    0.24158    0.00317    1.000
    N255     N        0.90810    0.21257    0.97769    1.000
    N256     N        0.91800    0.23935    0.95176    1.000
    N257     N        0.91530    0.28643    0.95943    1.000
    N258     N        0.05960    0.40907    0.06556    1.000
    N259     N        0.09050    0.42851    0.09124    1.000
    N260     N        0.04810    0.43096    0.11517    1.000
    N261     N        0.98760    0.41356    0.10655    1.000
    C346     C        0.90410    0.28660    0.99107    1.000
    C347     C        0.89120    0.33080    0.01168    1.000
    C348     C        0.95270    0.34150    0.03326    1.000
    H622     H        0.99300    0.34830    0.01970    1.000
    H623     H        0.96280    0.31280    0.04680    1.000
    C349     C        0.93770    0.38550    0.05469    1.000
    H624     H        0.88420    0.34660    0.08990    1.000
    H625     H        0.83560    0.36750    0.97600    1.000
    C350     C        0.82870    0.31980    0.03313    1.000
    H626     H        0.78910    0.31210    0.01940    1.000
    H627     H        0.83830    0.29110    0.04690    1.000
    C351     C        0.99580    0.40030    0.07567    1.000
    O70      O        0.87190    0.07260    0.97770    1.000
    N262     N        0.88650    0.99360    0.99180    1.000
    C352     C        0.90630    0.03810    0.98670    1.000
    H628     H        0.95310    0.04460    0.99030    1.000
    C353     C        0.81600    0.97900    0.99240    1.000
    H629     H        0.78950    0.00090    0.97860    1.000
    H630     H        0.81190    0.94560    0.98440    1.000
    H631     H        0.79880    0.98080    0.01450    1.000
    C354     C        0.93730    0.95520    0.99740    1.000
    H632     H        0.92870    0.93960    0.01820    1.000
    H633     H        0.93440    0.93090    0.98020    1.000
    H634     H        0.98280    0.96970    0.99750    1.000
    O71      O        0.82680    0.15610    0.01340    1.000
    N263     N        0.76530    0.15580    0.05930    1.000
    C355     C        0.79990    0.13430    0.03610    1.000
    H635     H        0.80440    0.09990    0.03690    1.000
    C356     C        0.73610    0.12760    0.08590    1.000
    H636     H        0.76960    0.10390    0.09360    1.000
    H637     H        0.72390    0.14970    0.10360    1.000
    H638     H        0.69550    0.11050    0.07840    1.000
    C357     C        0.75570    0.20900    0.05840    1.000
    H639     H        0.71900    0.21700    0.04340    1.000
    H640     H        0.74380    0.22060    0.08000    1.000
    H641     H        0.79780    0.22460    0.05130    1.000
    O72      O        0.84270    0.13760    0.02190    1.000
    N264     N        0.82110    0.18750    0.06430    1.000
    C358     C        0.85490    0.16940    0.04090    1.000
    H642     H        0.89820    0.18390    0.03800    1.000
    C359     C        0.85350    0.19930    0.09520    1.000
    H643     H        0.90300    0.19880    0.09270    1.000
    H644     H        0.83910    0.23180    0.10220    1.000
    H645     H        0.84000    0.17520    0.11150    1.000
    C360     C        0.74870    0.19830    0.06320    1.000
    H646     H        0.72280    0.16790    0.06480    1.000
    H647     H        0.73680    0.21960    0.08130    1.000
    H648     H        0.73780    0.21470    0.04290    1.000
    Cl48     Cl       0.88550    0.06140    0.98560    1.000
    Cu49     Cu       0.43298    0.53863    0.34190    1.000
    Cu50     Cu       0.39292    0.60920    0.27289    1.000
    Cl49     Cl       0.47981    0.61801    0.30883    1.000
    N265     N        0.40010    0.50842    0.24683    1.000
    N266     N        0.40810    0.53743    0.27231    1.000
    N267     N        0.41800    0.51065    0.29824    1.000
    N268     N        0.41530    0.46357    0.29057    1.000
    N269     N        0.55960    0.34093    0.18444    1.000
    N270     N        0.59050    0.32149    0.15876    1.000
    N271     N        0.54810    0.31904    0.13483    1.000
    N272     N        0.48760    0.33644    0.14345    1.000
    C361     C        0.40410    0.46340    0.25893    1.000
    C362     C        0.39120    0.41920    0.23832    1.000
    C363     C        0.45270    0.40850    0.21674    1.000
    H649     H        0.49300    0.40170    0.23030    1.000
    H650     H        0.46280    0.43720    0.20320    1.000
    C364     C        0.43770    0.36450    0.19531    1.000
    H651     H        0.38420    0.40340    0.16010    1.000
    H652     H        0.33560    0.38250    0.27400    1.000
    C365     C        0.32870    0.43020    0.21687    1.000
    H653     H        0.28910    0.43790    0.23060    1.000
    H654     H        0.33830    0.45890    0.20310    1.000
    C366     C        0.49580    0.34970    0.17433    1.000
    O73      O        0.37190    0.67740    0.27230    1.000
    N273     N        0.38650    0.75640    0.25820    1.000
    C367     C        0.40630    0.71190    0.26330    1.000
    H655     H        0.45310    0.70540    0.25970    1.000
    C368     C        0.31600    0.77100    0.25760    1.000
    H656     H        0.28950    0.74910    0.27140    1.000
    H657     H        0.31190    0.80440    0.26560    1.000
    H658     H        0.29880    0.76920    0.23550    1.000
    C369     C        0.43730    0.79480    0.25260    1.000
    H659     H        0.42870    0.81040    0.23180    1.000
    H660     H        0.43440    0.81910    0.26980    1.000
    H661     H        0.48280    0.78030    0.25250    1.000
    O74      O        0.32680    0.59390    0.23660    1.000
    N274     N        0.26530    0.59420    0.19070    1.000
    C370     C        0.29990    0.61570    0.21390    1.000
    H662     H        0.30440    0.65010    0.21310    1.000
    C371     C        0.23610    0.62240    0.16410    1.000
    H663     H        0.26960    0.64610    0.15640    1.000
    H664     H        0.22390    0.60030    0.14640    1.000
    H665     H        0.19550    0.63950    0.17160    1.000
    C372     C        0.25570    0.54100    0.19160    1.000
    H666     H        0.21900    0.53300    0.20660    1.000
    H667     H        0.24380    0.52940    0.17000    1.000
    H668     H        0.29780    0.52540    0.19870    1.000
    O75      O        0.34270    0.61240    0.22810    1.000
    N275     N        0.32110    0.56250    0.18570    1.000
    C373     C        0.35490    0.58060    0.20910    1.000
    H669     H        0.39820    0.56610    0.21200    1.000
    C374     C        0.35350    0.55070    0.15480    1.000
    H670     H        0.40300    0.55120    0.15730    1.000
    H671     H        0.33910    0.51820    0.14780    1.000
    H672     H        0.34000    0.57480    0.13850    1.000
    C375     C        0.24870    0.55170    0.18680    1.000
    H673     H        0.22280    0.58210    0.18520    1.000
    H674     H        0.23680    0.53040    0.16870    1.000
    H675     H        0.23780    0.53530    0.20710    1.000
    Cl50     Cl       0.38550    0.68860    0.26440    1.000
    Cu51     Cu       0.43298    0.03863    0.84190    1.000
    Cu52     Cu       0.39292    0.10920    0.77289    1.000
    Cl51     Cl       0.47981    0.11801    0.80883    1.000
    N276     N        0.40010    0.00842    0.74683    1.000
    N277     N        0.40810    0.03743    0.77231    1.000
    N278     N        0.41800    0.01065    0.79824    1.000
    N279     N        0.41530    0.96357    0.79057    1.000
    N280     N        0.55960    0.84093    0.68444    1.000
    N281     N        0.59050    0.82149    0.65876    1.000
    N282     N        0.54810    0.81904    0.63483    1.000
    N283     N        0.48760    0.83644    0.64345    1.000
    C376     C        0.40410    0.96340    0.75893    1.000
    C377     C        0.39120    0.91920    0.73832    1.000
    C378     C        0.45270    0.90850    0.71674    1.000
    H676     H        0.49300    0.90170    0.73030    1.000
    H677     H        0.46280    0.93720    0.70320    1.000
    C379     C        0.43770    0.86450    0.69531    1.000
    H678     H        0.38420    0.90340    0.66010    1.000
    H679     H        0.33560    0.88250    0.77400    1.000
    C380     C        0.32870    0.93020    0.71687    1.000
    H680     H        0.28910    0.93790    0.73060    1.000
    H681     H        0.33830    0.95890    0.70310    1.000
    C381     C        0.49580    0.84970    0.67433    1.000
    O76      O        0.37190    0.17740    0.77230    1.000
    N284     N        0.38650    0.25640    0.75820    1.000
    C382     C        0.40630    0.21190    0.76330    1.000
    H682     H        0.45310    0.20540    0.75970    1.000
    C383     C        0.31600    0.27100    0.75760    1.000
    H683     H        0.28950    0.24910    0.77140    1.000
    H684     H        0.31190    0.30440    0.76560    1.000
    H685     H        0.29880    0.26920    0.73550    1.000
    C384     C        0.43730    0.29480    0.75260    1.000
    H686     H        0.42870    0.31040    0.73180    1.000
    H687     H        0.43440    0.31910    0.76980    1.000
    H688     H        0.48280    0.28030    0.75250    1.000
    O77      O        0.32680    0.09390    0.73660    1.000
    N285     N        0.26530    0.09420    0.69070    1.000
    C385     C        0.29990    0.11570    0.71390    1.000
    H689     H        0.30440    0.15010    0.71310    1.000
    C386     C        0.23610    0.12240    0.66410    1.000
    H690     H        0.26960    0.14610    0.65640    1.000
    H691     H        0.22390    0.10030    0.64640    1.000
    H692     H        0.19550    0.13950    0.67160    1.000
    C387     C        0.25570    0.04100    0.69160    1.000
    H693     H        0.21900    0.03300    0.70660    1.000
    H694     H        0.24380    0.02940    0.67000    1.000
    H695     H        0.29780    0.02540    0.69870    1.000
    O78      O        0.34270    0.11240    0.72810    1.000
    N286     N        0.32110    0.06250    0.68570    1.000
    C388     C        0.35490    0.08060    0.70910    1.000
    H696     H        0.39820    0.06610    0.71200    1.000
    C389     C        0.35350    0.05070    0.65480    1.000
    H697     H        0.40300    0.05120    0.65730    1.000
    H698     H        0.33910    0.01820    0.64780    1.000
    H699     H        0.34000    0.07480    0.63850    1.000
    C390     C        0.24870    0.05170    0.68680    1.000
    H700     H        0.22280    0.08210    0.68520    1.000
    H701     H        0.23680    0.03040    0.66870    1.000
    H702     H        0.23780    0.03530    0.70710    1.000
    Cl52     Cl       0.38550    0.18860    0.76440    1.000
    Cu53     Cu       0.93298    0.53863    0.84190    1.000
    Cu54     Cu       0.89292    0.60920    0.77289    1.000
    Cl53     Cl       0.97981    0.61801    0.80883    1.000
    N287     N        0.90010    0.50842    0.74683    1.000
    N288     N        0.90810    0.53743    0.77231    1.000
    N289     N        0.91800    0.51065    0.79824    1.000
    N290     N        0.91530    0.46357    0.79057    1.000
    N291     N        0.05960    0.34093    0.68444    1.000
    N292     N        0.09050    0.32149    0.65876    1.000
    N293     N        0.04810    0.31904    0.63483    1.000
    N294     N        0.98760    0.33644    0.64345    1.000
    C391     C        0.90410    0.46340    0.75893    1.000
    C392     C        0.89120    0.41920    0.73832    1.000
    C393     C        0.95270    0.40850    0.71674    1.000
    H703     H        0.99300    0.40170    0.73030    1.000
    H704     H        0.96280    0.43720    0.70320    1.000
    C394     C        0.93770    0.36450    0.69531    1.000
    H705     H        0.88420    0.40340    0.66010    1.000
    H706     H        0.83560    0.38250    0.77400    1.000
    C395     C        0.82870    0.43020    0.71687    1.000
    H707     H        0.78910    0.43790    0.73060    1.000
    H708     H        0.83830    0.45890    0.70310    1.000
    C396     C        0.99580    0.34970    0.67433    1.000
    O79      O        0.87190    0.67740    0.77230    1.000
    N295     N        0.88650    0.75640    0.75820    1.000
    C397     C        0.90630    0.71190    0.76330    1.000
    H709     H        0.95310    0.70540    0.75970    1.000
    C398     C        0.81600    0.77100    0.75760    1.000
    H710     H        0.78950    0.74910    0.77140    1.000
    H711     H        0.81190    0.80440    0.76560    1.000
    H712     H        0.79880    0.76920    0.73550    1.000
    C399     C        0.93730    0.79480    0.75260    1.000
    H713     H        0.92870    0.81040    0.73180    1.000
    H714     H        0.93440    0.81910    0.76980    1.000
    H715     H        0.98280    0.78030    0.75250    1.000
    O80      O        0.82680    0.59390    0.73660    1.000
    N296     N        0.76530    0.59420    0.69070    1.000
    C400     C        0.79990    0.61570    0.71390    1.000
    H716     H        0.80440    0.65010    0.71310    1.000
    C401     C        0.73610    0.62240    0.66410    1.000
    H717     H        0.76960    0.64610    0.65640    1.000
    H718     H        0.72390    0.60030    0.64640    1.000
    H719     H        0.69550    0.63950    0.67160    1.000
    C402     C        0.75570    0.54100    0.69160    1.000
    H720     H        0.71900    0.53300    0.70660    1.000
    H721     H        0.74380    0.52940    0.67000    1.000
    H722     H        0.79780    0.52540    0.69870    1.000
    O81      O        0.84270    0.61240    0.72810    1.000
    N297     N        0.82110    0.56250    0.68570    1.000
    C403     C        0.85490    0.58060    0.70910    1.000
    H723     H        0.89820    0.56610    0.71200    1.000
    C404     C        0.85350    0.55070    0.65480    1.000
    H724     H        0.90300    0.55120    0.65730    1.000
    H725     H        0.83910    0.51820    0.64780    1.000
    H726     H        0.84000    0.57480    0.63850    1.000
    C405     C        0.74870    0.55170    0.68680    1.000
    H727     H        0.72280    0.58210    0.68520    1.000
    H728     H        0.73680    0.53040    0.66870    1.000
    H729     H        0.73780    0.53530    0.70710    1.000
    Cl54     Cl       0.88550    0.68860    0.76440    1.000
    Cu55     Cu       0.93298    0.03863    0.34190    1.000
    Cu56     Cu       0.89292    0.10920    0.27289    1.000
    Cl55     Cl       0.97981    0.11801    0.30883    1.000
    N298     N        0.90010    0.00842    0.24683    1.000
    N299     N        0.90810    0.03743    0.27231    1.000
    N300     N        0.91800    0.01065    0.29824    1.000
    N301     N        0.91530    0.96357    0.29057    1.000
    N302     N        0.05960    0.84093    0.18444    1.000
    N303     N        0.09050    0.82149    0.15876    1.000
    N304     N        0.04810    0.81904    0.13483    1.000
    N305     N        0.98760    0.83644    0.14345    1.000
    C406     C        0.90410    0.96340    0.25893    1.000
    C407     C        0.89120    0.91920    0.23832    1.000
    C408     C        0.95270    0.90850    0.21674    1.000
    H730     H        0.99300    0.90170    0.23030    1.000
    H731     H        0.96280    0.93720    0.20320    1.000
    C409     C        0.93770    0.86450    0.19531    1.000
    H732     H        0.88420    0.90340    0.16010    1.000
    H733     H        0.83560    0.88250    0.27400    1.000
    C410     C        0.82870    0.93020    0.21687    1.000
    H734     H        0.78910    0.93790    0.23060    1.000
    H735     H        0.83830    0.95890    0.20310    1.000
    C411     C        0.99580    0.84970    0.17433    1.000
    O82      O        0.87190    0.17740    0.27230    1.000
    N306     N        0.88650    0.25640    0.25820    1.000
    C412     C        0.90630    0.21190    0.26330    1.000
    H736     H        0.95310    0.20540    0.25970    1.000
    C413     C        0.81600    0.27100    0.25760    1.000
    H737     H        0.78950    0.24910    0.27140    1.000
    H738     H        0.81190    0.30440    0.26560    1.000
    H739     H        0.79880    0.26920    0.23550    1.000
    C414     C        0.93730    0.29480    0.25260    1.000
    H740     H        0.92870    0.31040    0.23180    1.000
    H741     H        0.93440    0.31910    0.26980    1.000
    H742     H        0.98280    0.28030    0.25250    1.000
    O83      O        0.82680    0.09390    0.23660    1.000
    N307     N        0.76530    0.09420    0.19070    1.000
    C415     C        0.79990    0.11570    0.21390    1.000
    H743     H        0.80440    0.15010    0.21310    1.000
    C416     C        0.73610    0.12240    0.16410    1.000
    H744     H        0.76960    0.14610    0.15640    1.000
    H745     H        0.72390    0.10030    0.14640    1.000
    H746     H        0.69550    0.13950    0.17160    1.000
    C417     C        0.75570    0.04100    0.19160    1.000
    H747     H        0.71900    0.03300    0.20660    1.000
    H748     H        0.74380    0.02940    0.17000    1.000
    H749     H        0.79780    0.02540    0.19870    1.000
    O84      O        0.84270    0.11240    0.22810    1.000
    N308     N        0.82110    0.06250    0.18570    1.000
    C418     C        0.85490    0.08060    0.20910    1.000
    H750     H        0.89820    0.06610    0.21200    1.000
    C419     C        0.85350    0.05070    0.15480    1.000
    H751     H        0.90300    0.05120    0.15730    1.000
    H752     H        0.83910    0.01820    0.14780    1.000
    H753     H        0.84000    0.07480    0.13850    1.000
    C420     C        0.74870    0.05170    0.18680    1.000
    H754     H        0.72280    0.08210    0.18520    1.000
    H755     H        0.73680    0.03040    0.16870    1.000
    H756     H        0.73780    0.03530    0.20710    1.000
    Cl56     Cl       0.88550    0.18860    0.26440    1.000
    Cu57     Cu       0.81702    0.71137    0.34190    1.000
    Cu58     Cu       0.85708    0.64080    0.27289    1.000
    Cl57     Cl       0.77019    0.63199    0.30883    1.000
    N309     N        0.84990    0.74158    0.24683    1.000
    N310     N        0.84190    0.71257    0.27231    1.000
    N311     N        0.83200    0.73935    0.29824    1.000
    N312     N        0.83470    0.78643    0.29057    1.000
    N313     N        0.69040    0.90907    0.18444    1.000
    N314     N        0.65950    0.92851    0.15876    1.000
    N315     N        0.70190    0.93096    0.13483    1.000
    N316     N        0.76240    0.91356    0.14345    1.000
    C421     C        0.84590    0.78660    0.25893    1.000
    C422     C        0.85880    0.83080    0.23832    1.000
    C423     C        0.79730    0.84150    0.21674    1.000
    H757     H        0.75700    0.84830    0.23030    1.000
    H758     H        0.78720    0.81280    0.20320    1.000
    C424     C        0.81230    0.88550    0.19531    1.000
    H759     H        0.86580    0.84660    0.16010    1.000
    H760     H        0.91440    0.86750    0.27400    1.000
    C425     C        0.92130    0.81980    0.21687    1.000
    H761     H        0.96090    0.81210    0.23060    1.000
    H762     H        0.91170    0.79110    0.20310    1.000
    C426     C        0.75420    0.90030    0.17433    1.000
    O85      O        0.87810    0.57260    0.27230    1.000
    N317     N        0.86350    0.49360    0.25820    1.000
    C427     C        0.84370    0.53810    0.26330    1.000
    H763     H        0.79690    0.54460    0.25970    1.000
    C428     C        0.93400    0.47900    0.25760    1.000
    H764     H        0.96050    0.50090    0.27140    1.000
    H765     H        0.93810    0.44560    0.26560    1.000
    H766     H        0.95120    0.48080    0.23550    1.000
    C429     C        0.81270    0.45520    0.25260    1.000
    H767     H        0.82130    0.43960    0.23180    1.000
    H768     H        0.81560    0.43090    0.26980    1.000
    H769     H        0.76720    0.46970    0.25250    1.000
    O86      O        0.92320    0.65610    0.23660    1.000
    N318     N        0.98470    0.65580    0.19070    1.000
    C430     C        0.95010    0.63430    0.21390    1.000
    H770     H        0.94560    0.59990    0.21310    1.000
    C431     C        0.01390    0.62760    0.16410    1.000
    H771     H        0.98040    0.60390    0.15640    1.000
    H772     H        0.02610    0.64970    0.14640    1.000
    H773     H        0.05450    0.61050    0.17160    1.000
    C432     C        0.99430    0.70900    0.19160    1.000
    H774     H        0.03100    0.71700    0.20660    1.000
    H775     H        0.00620    0.72060    0.17000    1.000
    H776     H        0.95220    0.72460    0.19870    1.000
    O87      O        0.90730    0.63760    0.22810    1.000
    N319     N        0.92890    0.68750    0.18570    1.000
    C433     C        0.89510    0.66940    0.20910    1.000
    H777     H        0.85180    0.68390    0.21200    1.000
    C434     C        0.89650    0.69930    0.15480    1.000
    H778     H        0.84700    0.69880    0.15730    1.000
    H779     H        0.91090    0.73180    0.14780    1.000
    H780     H        0.91000    0.67520    0.13850    1.000
    C435     C        0.00130    0.69830    0.18680    1.000
    H781     H        0.02720    0.66790    0.18520    1.000
    H782     H        0.01320    0.71960    0.16870    1.000
    H783     H        0.01220    0.71470    0.20710    1.000
    Cl58     Cl       0.86450    0.56140    0.26440    1.000
    Cu59     Cu       0.81702    0.21137    0.84190    1.000
    Cu60     Cu       0.85708    0.14080    0.77289    1.000
    Cl59     Cl       0.77019    0.13199    0.80883    1.000
    N320     N        0.84990    0.24158    0.74683    1.000
    N321     N        0.84190    0.21257    0.77231    1.000
    N322     N        0.83200    0.23935    0.79824    1.000
    N323     N        0.83470    0.28643    0.79057    1.000
    N324     N        0.69040    0.40907    0.68444    1.000
    N325     N        0.65950    0.42851    0.65876    1.000
    N326     N        0.70190    0.43096    0.63483    1.000
    N327     N        0.76240    0.41356    0.64345    1.000
    C436     C        0.84590    0.28660    0.75893    1.000
    C437     C        0.85880    0.33080    0.73832    1.000
    C438     C        0.79730    0.34150    0.71674    1.000
    H784     H        0.75700    0.34830    0.73030    1.000
    H785     H        0.78720    0.31280    0.70320    1.000
    C439     C        0.81230    0.38550    0.69531    1.000
    H786     H        0.86580    0.34660    0.66010    1.000
    H787     H        0.91440    0.36750    0.77400    1.000
    C440     C        0.92130    0.31980    0.71687    1.000
    H788     H        0.96090    0.31210    0.73060    1.000
    H789     H        0.91170    0.29110    0.70310    1.000
    C441     C        0.75420    0.40030    0.67433    1.000
    O88      O        0.87810    0.07260    0.77230    1.000
    N328     N        0.86350    0.99360    0.75820    1.000
    C442     C        0.84370    0.03810    0.76330    1.000
    H790     H        0.79690    0.04460    0.75970    1.000
    C443     C        0.93400    0.97900    0.75760    1.000
    H791     H        0.96050    0.00090    0.77140    1.000
    H792     H        0.93810    0.94560    0.76560    1.000
    H793     H        0.95120    0.98080    0.73550    1.000
    C444     C        0.81270    0.95520    0.75260    1.000
    H794     H        0.82130    0.93960    0.73180    1.000
    H795     H        0.81560    0.93090    0.76980    1.000
    H796     H        0.76720    0.96970    0.75250    1.000
    O89      O        0.92320    0.15610    0.73660    1.000
    N329     N        0.98470    0.15580    0.69070    1.000
    C445     C        0.95010    0.13430    0.71390    1.000
    H797     H        0.94560    0.09990    0.71310    1.000
    C446     C        0.01390    0.12760    0.66410    1.000
    H798     H        0.98040    0.10390    0.65640    1.000
    H799     H        0.02610    0.14970    0.64640    1.000
    H800     H        0.05450    0.11050    0.67160    1.000
    C447     C        0.99430    0.20900    0.69160    1.000
    H801     H        0.03100    0.21700    0.70660    1.000
    H802     H        0.00620    0.22060    0.67000    1.000
    H803     H        0.95220    0.22460    0.69870    1.000
    O90      O        0.90730    0.13760    0.72810    1.000
    N330     N        0.92890    0.18750    0.68570    1.000
    C448     C        0.89510    0.16940    0.70910    1.000
    H804     H        0.85180    0.18390    0.71200    1.000
    C449     C        0.89650    0.19930    0.65480    1.000
    H805     H        0.84700    0.19880    0.65730    1.000
    H806     H        0.91090    0.23180    0.64780    1.000
    H807     H        0.91000    0.17520    0.63850    1.000
    C450     C        0.00130    0.19830    0.68680    1.000
    H808     H        0.02720    0.16790    0.68520    1.000
    H809     H        0.01320    0.21960    0.66870    1.000
    H810     H        0.01220    0.21470    0.70710    1.000
    Cl60     Cl       0.86450    0.06140    0.76440    1.000
    Cu61     Cu       0.31702    0.71137    0.84190    1.000
    Cu62     Cu       0.35708    0.64080    0.77289    1.000
    Cl61     Cl       0.27019    0.63199    0.80883    1.000
    N331     N        0.34990    0.74158    0.74683    1.000
    N332     N        0.34190    0.71257    0.77231    1.000
    N333     N        0.33200    0.73935    0.79824    1.000
    N334     N        0.33470    0.78643    0.79057    1.000
    N335     N        0.19040    0.90907    0.68444    1.000
    N336     N        0.15950    0.92851    0.65876    1.000
    N337     N        0.20190    0.93096    0.63483    1.000
    N338     N        0.26240    0.91356    0.64345    1.000
    C451     C        0.34590    0.78660    0.75893    1.000
    C452     C        0.35880    0.83080    0.73832    1.000
    C453     C        0.29730    0.84150    0.71674    1.000
    H811     H        0.25700    0.84830    0.73030    1.000
    H812     H        0.28720    0.81280    0.70320    1.000
    C454     C        0.31230    0.88550    0.69531    1.000
    H813     H        0.36580    0.84660    0.66010    1.000
    H814     H        0.41440    0.86750    0.77400    1.000
    C455     C        0.42130    0.81980    0.71687    1.000
    H815     H        0.46090    0.81210    0.73060    1.000
    H816     H        0.41170    0.79110    0.70310    1.000
    C456     C        0.25420    0.90030    0.67433    1.000
    O91      O        0.37810    0.57260    0.77230    1.000
    N339     N        0.36350    0.49360    0.75820    1.000
    C457     C        0.34370    0.53810    0.76330    1.000
    H817     H        0.29690    0.54460    0.75970    1.000
    C458     C        0.43400    0.47900    0.75760    1.000
    H818     H        0.46050    0.50090    0.77140    1.000
    H819     H        0.43810    0.44560    0.76560    1.000
    H820     H        0.45120    0.48080    0.73550    1.000
    C459     C        0.31270    0.45520    0.75260    1.000
    H821     H        0.32130    0.43960    0.73180    1.000
    H822     H        0.31560    0.43090    0.76980    1.000
    H823     H        0.26720    0.46970    0.75250    1.000
    O92      O        0.42320    0.65610    0.73660    1.000
    N340     N        0.48470    0.65580    0.69070    1.000
    C460     C        0.45010    0.63430    0.71390    1.000
    H824     H        0.44560    0.59990    0.71310    1.000
    C461     C        0.51390    0.62760    0.66410    1.000
    H825     H        0.48040    0.60390    0.65640    1.000
    H826     H        0.52610    0.64970    0.64640    1.000
    H827     H        0.55450    0.61050    0.67160    1.000
    C462     C        0.49430    0.70900    0.69160    1.000
    H828     H        0.53100    0.71700    0.70660    1.000
    H829     H        0.50620    0.72060    0.67000    1.000
    H830     H        0.45220    0.72460    0.69870    1.000
    O93      O        0.40730    0.63760    0.72810    1.000
    N341     N        0.42890    0.68750    0.68570    1.000
    C463     C        0.39510    0.66940    0.70910    1.000
    H831     H        0.35180    0.68390    0.71200    1.000
    C464     C        0.39650    0.69930    0.65480    1.000
    H832     H        0.34700    0.69880    0.65730    1.000
    H833     H        0.41090    0.73180    0.64780    1.000
    H834     H        0.41000    0.67520    0.63850    1.000
    C465     C        0.50130    0.69830    0.68680    1.000
    H835     H        0.52720    0.66790    0.68520    1.000
    H836     H        0.51320    0.71960    0.66870    1.000
    H837     H        0.51220    0.71470    0.70710    1.000
    Cl62     Cl       0.36450    0.56140    0.76440    1.000
    Cu63     Cu       0.31702    0.21137    0.34190    1.000
    Cu64     Cu       0.35708    0.14080    0.27289    1.000
    Cl63     Cl       0.27019    0.13199    0.30883    1.000
    N342     N        0.34990    0.24158    0.24683    1.000
    N343     N        0.34190    0.21257    0.27231    1.000
    N344     N        0.33200    0.23935    0.29824    1.000
    N345     N        0.33470    0.28643    0.29057    1.000
    N346     N        0.19040    0.40907    0.18444    1.000
    N347     N        0.15950    0.42851    0.15876    1.000
    N348     N        0.20190    0.43096    0.13483    1.000
    N349     N        0.26240    0.41356    0.14345    1.000
    C466     C        0.34590    0.28660    0.25893    1.000
    C467     C        0.35880    0.33080    0.23832    1.000
    C468     C        0.29730    0.34150    0.21674    1.000
    H838     H        0.25700    0.34830    0.23030    1.000
    H839     H        0.28720    0.31280    0.20320    1.000
    C469     C        0.31230    0.38550    0.19531    1.000
    H840     H        0.36580    0.34660    0.16010    1.000
    H841     H        0.41440    0.36750    0.27400    1.000
    C470     C        0.42130    0.31980    0.21687    1.000
    H842     H        0.46090    0.31210    0.23060    1.000
    H843     H        0.41170    0.29110    0.20310    1.000
    C471     C        0.25420    0.40030    0.17433    1.000
    O94      O        0.37810    0.07260    0.27230    1.000
    N350     N        0.36350    0.99360    0.25820    1.000
    C472     C        0.34370    0.03810    0.26330    1.000
    H844     H        0.29690    0.04460    0.25970    1.000
    C473     C        0.43400    0.97900    0.25760    1.000
    H845     H        0.46050    0.00090    0.27140    1.000
    H846     H        0.43810    0.94560    0.26560    1.000
    H847     H        0.45120    0.98080    0.23550    1.000
    C474     C        0.31270    0.95520    0.25260    1.000
    H848     H        0.32130    0.93960    0.23180    1.000
    H849     H        0.31560    0.93090    0.26980    1.000
    H850     H        0.26720    0.96970    0.25250    1.000
    O95      O        0.42320    0.15610    0.23660    1.000
    N351     N        0.48470    0.15580    0.19070    1.000
    C475     C        0.45010    0.13430    0.21390    1.000
    H851     H        0.44560    0.09990    0.21310    1.000
    C476     C        0.51390    0.12760    0.16410    1.000
    H852     H        0.48040    0.10390    0.15640    1.000
    H853     H        0.52610    0.14970    0.14640    1.000
    H854     H        0.55450    0.11050    0.17160    1.000
    C477     C        0.49430    0.20900    0.19160    1.000
    H855     H        0.53100    0.21700    0.20660    1.000
    H856     H        0.50620    0.22060    0.17000    1.000
    H857     H        0.45220    0.22460    0.19870    1.000
    O96      O        0.40730    0.13760    0.22810    1.000
    N352     N        0.42890    0.18750    0.18570    1.000
    C478     C        0.39510    0.16940    0.20910    1.000
    H858     H        0.35180    0.18390    0.21200    1.000
    C479     C        0.39650    0.19930    0.15480    1.000
    H859     H        0.34700    0.19880    0.15730    1.000
    H860     H        0.41090    0.23180    0.14780    1.000
    H861     H        0.41000    0.17520    0.13850    1.000
    C480     C        0.50130    0.19830    0.18680    1.000
    H862     H        0.52720    0.16790    0.18520    1.000
    H863     H        0.51320    0.21960    0.16870    1.000
    H864     H        0.51220    0.21470    0.20710    1.000
    Cl64     Cl       0.36450    0.06140    0.26440    1.000
    Cl65     Cl       0.12500    0.53016    0.12500    1.000
    Cl66     Cl       0.12500    0.03016    0.62500    1.000
    Cl67     Cl       0.62500    0.21984    0.12500    1.000
    Cl68     Cl       0.62500    0.71984    0.62500    1.000
    Cl69     Cl       0.62500    0.53016    0.62500    1.000
    Cl70     Cl       0.62500    0.03016    0.12500    1.000
    Cl71     Cl       0.12500    0.21984    0.62500    1.000
    Cl72     Cl       0.12500    0.71984    0.12500    1.000
    Cl73     Cl       0.87500    0.46984    0.87500    1.000
    Cl74     Cl       0.87500    0.96984    0.37500    1.000
    Cl75     Cl       0.37500    0.78016    0.87500    1.000
    Cl76     Cl       0.37500    0.28016    0.37500    1.000
    Cl77     Cl       0.37500    0.46984    0.37500    1.000
    Cl78     Cl       0.37500    0.96984    0.87500    1.000
    Cl79     Cl       0.87500    0.78016    0.37500    1.000
    Cl80     Cl       0.87500    0.28016    0.87500    1.000
    C481     C        0.12500    0.62500    0.92407    1.000
    C482     C        0.12500    0.62500    0.01000    1.000
    C483     C        0.12500    0.12500    0.42407    1.000
    C484     C        0.12500    0.12500    0.51000    1.000
    C485     C        0.62500    0.62500    0.42407    1.000
    C486     C        0.62500    0.62500    0.51000    1.000
    C487     C        0.62500    0.12500    0.92407    1.000
    C488     C        0.62500    0.12500    0.01000    1.000
    C489     C        0.62500    0.62500    0.82593    1.000
    C490     C        0.62500    0.62500    0.74000    1.000
    C491     C        0.62500    0.12500    0.32593    1.000
    C492     C        0.62500    0.12500    0.24000    1.000
    C493     C        0.12500    0.12500    0.82593    1.000
    C494     C        0.12500    0.12500    0.74000    1.000
    C495     C        0.12500    0.62500    0.32593    1.000
    C496     C        0.12500    0.62500    0.24000    1.000
    C497     C        0.87500    0.37500    0.07593    1.000
    C498     C        0.87500    0.37500    0.99000    1.000
    C499     C        0.87500    0.87500    0.57593    1.000
    C500     C        0.87500    0.87500    0.49000    1.000
    C501     C        0.37500    0.87500    0.07593    1.000
    C502     C        0.37500    0.87500    0.99000    1.000
    C503     C        0.37500    0.37500    0.57593    1.000
    C504     C        0.37500    0.37500    0.49000    1.000
    C505     C        0.37500    0.37500    0.17407    1.000
    C506     C        0.37500    0.37500    0.26000    1.000
    C507     C        0.37500    0.87500    0.67407    1.000
    C508     C        0.37500    0.87500    0.76000    1.000
    C509     C        0.87500    0.87500    0.17407    1.000
    C510     C        0.87500    0.87500    0.26000    1.000
    C511     C        0.87500    0.37500    0.67407    1.000
    C512     C        0.87500    0.37500    0.76000    1.000
