# CIF file generated by openbabel 3.1.0, see https://openbabel.org
data_I
_chemical_name_common 'image0'
_cell_length_a 24.225
_cell_length_b 9.6254
_cell_length_c 16.37
_cell_angle_alpha 90
_cell_angle_beta 118.54
_cell_angle_gamma 90
_space_group_name_H-M_alt 'P 1'
_space_group_name_Hall 'P 1'
loop_
    _symmetry_equiv_pos_as_xyz
    x,y,z
loop_
    _atom_site_label
    _atom_site_type_symbol
    _atom_site_fract_x
    _atom_site_fract_y
    _atom_site_fract_z
    _atom_site_occupancy
    Cu1      Cu       0.04177    0.38001    0.37793    1.000
    Cu2      Cu       0.04178    0.18003    0.03391    1.000
    N1       N        0.13637    0.01550    0.52550    1.000
    N2       N        0.07839    0.00270    0.51740    1.000
    N3       N        0.04587    0.11610    0.48080    1.000
    N4       N        0.08105    0.20620    0.46320    1.000
    N5       N        0.14096    0.21420    0.24400    1.000
    N6       N        0.08322    0.23750    0.17440    1.000
    N7       N        0.04843    0.29560    0.20620    1.000
    N8       N        0.08235    0.30990    0.29870    1.000
    N9       N        0.04060    0.43880    0.92510    1.000
    C1       C        0.25130    0.30180    0.42260    1.000
    H1       H        0.25210    0.33660    0.37010    1.000
    C2       C        0.19460    0.25440    0.41430    1.000
    C3       C        0.19280    0.20100    0.49280    1.000
    C4       C        0.13630    0.14170    0.49140    1.000
    C5       C        0.13890    0.25810    0.32010    1.000
    C6       C        0.03940    0.33610    0.95790    1.000
    Cu3      Cu       0.54177    0.88001    0.37793    1.000
    Cu4      Cu       0.54178    0.68003    0.03391    1.000
    N10      N        0.63637    0.51550    0.52550    1.000
    N11      N        0.57839    0.50270    0.51740    1.000
    N12      N        0.54587    0.61610    0.48080    1.000
    N13      N        0.58105    0.70620    0.46320    1.000
    N14      N        0.64096    0.71420    0.24400    1.000
    N15      N        0.58322    0.73750    0.17440    1.000
    N16      N        0.54843    0.79560    0.20620    1.000
    N17      N        0.58235    0.80990    0.29870    1.000
    N18      N        0.54060    0.93880    0.92510    1.000
    C7       C        0.75130    0.80180    0.42260    1.000
    H2       H        0.75210    0.83660    0.37010    1.000
    C8       C        0.69460    0.75440    0.41430    1.000
    C9       C        0.69280    0.70100    0.49280    1.000
    C10      C        0.63630    0.64170    0.49140    1.000
    C11      C        0.63890    0.75810    0.32010    1.000
    C12      C        0.53940    0.83610    0.95790    1.000
    Cu5      Cu       0.95823    0.38001    0.12207    1.000
    Cu6      Cu       0.95822    0.18003    0.46609    1.000
    N19      N        0.86363    0.01550    0.97450    1.000
    N20      N        0.92161    0.00270    0.98260    1.000
    N21      N        0.95413    0.11610    0.01920    1.000
    N22      N        0.91895    0.20620    0.03680    1.000
    N23      N        0.85904    0.21420    0.25600    1.000
    N24      N        0.91678    0.23750    0.32560    1.000
    N25      N        0.95157    0.29560    0.29380    1.000
    N26      N        0.91765    0.30990    0.20130    1.000
    N27      N        0.95940    0.43880    0.57490    1.000
    C13      C        0.74870    0.30180    0.07740    1.000
    H3       H        0.74790    0.33660    0.12990    1.000
    C14      C        0.80540    0.25440    0.08570    1.000
    C15      C        0.80720    0.20100    0.00720    1.000
    C16      C        0.86370    0.14170    0.00860    1.000
    C17      C        0.86110    0.25810    0.17990    1.000
    C18      C        0.96060    0.33610    0.54210    1.000
    Cu7      Cu       0.45823    0.88001    0.12207    1.000
    Cu8      Cu       0.45822    0.68003    0.46609    1.000
    N28      N        0.36363    0.51550    0.97450    1.000
    N29      N        0.42161    0.50270    0.98260    1.000
    N30      N        0.45413    0.61610    0.01920    1.000
    N31      N        0.41895    0.70620    0.03680    1.000
    N32      N        0.35904    0.71420    0.25600    1.000
    N33      N        0.41678    0.73750    0.32560    1.000
    N34      N        0.45157    0.79560    0.29380    1.000
    N35      N        0.41765    0.80990    0.20130    1.000
    N36      N        0.45940    0.93880    0.57490    1.000
    C19      C        0.24870    0.80180    0.07740    1.000
    H4       H        0.24790    0.83660    0.12990    1.000
    C20      C        0.30540    0.75440    0.08570    1.000
    C21      C        0.30720    0.70100    0.00720    1.000
    C22      C        0.36370    0.64170    0.00860    1.000
    C23      C        0.36110    0.75810    0.17990    1.000
    C24      C        0.46060    0.83610    0.54210    1.000
    Cu9      Cu       0.95823    0.61999    0.62207    1.000
    Cu10     Cu       0.95822    0.81997    0.96609    1.000
    N37      N        0.86363    0.98450    0.47450    1.000
    N38      N        0.92161    0.99730    0.48260    1.000
    N39      N        0.95413    0.88390    0.51920    1.000
    N40      N        0.91895    0.79380    0.53680    1.000
    N41      N        0.85904    0.78580    0.75600    1.000
    N42      N        0.91678    0.76250    0.82560    1.000
    N43      N        0.95157    0.70440    0.79380    1.000
    N44      N        0.91765    0.69010    0.70130    1.000
    N45      N        0.95940    0.56120    0.07490    1.000
    C25      C        0.74870    0.69820    0.57740    1.000
    H5       H        0.74790    0.66340    0.62990    1.000
    C26      C        0.80540    0.74560    0.58570    1.000
    C27      C        0.80720    0.79900    0.50720    1.000
    C28      C        0.86370    0.85830    0.50860    1.000
    C29      C        0.86110    0.74190    0.67990    1.000
    C30      C        0.96060    0.66390    0.04210    1.000
    Cu11     Cu       0.45823    0.11999    0.62207    1.000
    Cu12     Cu       0.45822    0.31997    0.96609    1.000
    N46      N        0.36363    0.48450    0.47450    1.000
    N47      N        0.42161    0.49730    0.48260    1.000
    N48      N        0.45413    0.38390    0.51920    1.000
    N49      N        0.41895    0.29380    0.53680    1.000
    N50      N        0.35904    0.28580    0.75600    1.000
    N51      N        0.41678    0.26250    0.82560    1.000
    N52      N        0.45157    0.20440    0.79380    1.000
    N53      N        0.41765    0.19010    0.70130    1.000
    N54      N        0.45940    0.06120    0.07490    1.000
    C31      C        0.24870    0.19820    0.57740    1.000
    H6       H        0.24790    0.16340    0.62990    1.000
    C32      C        0.30540    0.24560    0.58570    1.000
    C33      C        0.30720    0.29900    0.50720    1.000
    C34      C        0.36370    0.35830    0.50860    1.000
    C35      C        0.36110    0.24190    0.67990    1.000
    C36      C        0.46060    0.16390    0.04210    1.000
    Cu13     Cu       0.04177    0.61999    0.87793    1.000
    Cu14     Cu       0.04178    0.81997    0.53391    1.000
    N55      N        0.13637    0.98450    0.02550    1.000
    N56      N        0.07839    0.99730    0.01740    1.000
    N57      N        0.04587    0.88390    0.98080    1.000
    N58      N        0.08105    0.79380    0.96320    1.000
    N59      N        0.14096    0.78580    0.74400    1.000
    N60      N        0.08322    0.76250    0.67440    1.000
    N61      N        0.04843    0.70440    0.70620    1.000
    N62      N        0.08235    0.69010    0.79870    1.000
    N63      N        0.04060    0.56120    0.42510    1.000
    C37      C        0.25130    0.69820    0.92260    1.000
    H7       H        0.25210    0.66340    0.87010    1.000
    C38      C        0.19460    0.74560    0.91430    1.000
    C39      C        0.19280    0.79900    0.99280    1.000
    C40      C        0.13630    0.85830    0.99140    1.000
    C41      C        0.13890    0.74190    0.82010    1.000
    C42      C        0.03940    0.66390    0.45790    1.000
    Cu15     Cu       0.54177    0.11999    0.87793    1.000
    Cu16     Cu       0.54178    0.31997    0.53391    1.000
    N64      N        0.63637    0.48450    0.02550    1.000
    N65      N        0.57839    0.49730    0.01740    1.000
    N66      N        0.54587    0.38390    0.98080    1.000
    N67      N        0.58105    0.29380    0.96320    1.000
    N68      N        0.64096    0.28580    0.74400    1.000
    N69      N        0.58322    0.26250    0.67440    1.000
    N70      N        0.54843    0.20440    0.70620    1.000
    N71      N        0.58235    0.19010    0.79870    1.000
    N72      N        0.54060    0.06120    0.42510    1.000
    C43      C        0.75130    0.19820    0.92260    1.000
    H8       H        0.75210    0.16340    0.87010    1.000
    C44      C        0.69460    0.24560    0.91430    1.000
    C45      C        0.69280    0.29900    0.99280    1.000
    C46      C        0.63630    0.35830    0.99140    1.000
    C47      C        0.63890    0.24190    0.82010    1.000
    C48      C        0.53940    0.16390    0.45790    1.000
