# CIF file generated by openbabel 3.1.0, see https://openbabel.org
data_I
_chemical_name_common 'image0'
_cell_length_a 7.512
_cell_length_b 16.53
_cell_length_c 14.154
_cell_angle_alpha 90
_cell_angle_beta 90.71
_cell_angle_gamma 90
_space_group_name_H-M_alt 'P 1'
_space_group_name_Hall 'P 1'
loop_
    _symmetry_equiv_pos_as_xyz
    x,y,z
loop_
    _atom_site_label
    _atom_site_type_symbol
    _atom_site_fract_x
    _atom_site_fract_y
    _atom_site_fract_z
    _atom_site_occupancy
    O1       O        0.41090    0.39264    0.56980    1.000
    O2       O        0.12270    0.41291    0.59680    1.000
    O3       O        0.12160    0.07761    0.89830    1.000
    O4       O        0.40890    0.10248    0.92820    1.000
    O5       O        0.24930    0.50623    0.40340    1.000
    C1       C        0.33530    0.31610    0.76560    1.000
    H1       H        0.38240    0.36610    0.78290    1.000
    C2       C        0.33560    0.25280    0.83120    1.000
    H2       H        0.38220    0.26160    0.89150    1.000
    C3       C        0.26860    0.17810    0.80850    1.000
    C4       C        0.20070    0.16350    0.71490    1.000
    C5       C        0.14300    0.08640    0.68520    1.000
    H3       H        0.14410    0.04360    0.72780    1.000
    C6       C        0.08530    0.07410    0.59420    1.000
    H4       H        0.05140    0.02250    0.57480    1.000
    C7       C        0.07710    0.13860    0.53030    1.000
    H5       H        0.03450    0.12980    0.46910    1.000
    C8       C        0.13030    0.21340    0.55650    1.000
    H6       H        0.12270    0.25570    0.51330    1.000
    C9       C        0.19730    0.22850    0.64870    1.000
    C10      C        0.26650    0.30550    0.67590    1.000
    C11      C        0.26700    0.37530    0.60850    1.000
    C12      C        0.26610    0.11450    0.88360    1.000
    O6       O        0.08910    0.89264    0.93020    1.000
    O7       O        0.37730    0.91291    0.90320    1.000
    O8       O        0.37840    0.57761    0.60170    1.000
    O9       O        0.09110    0.60248    0.57180    1.000
    O10      O        0.25070    0.00623    0.09660    1.000
    C13      C        0.16470    0.81610    0.73440    1.000
    H7       H        0.11760    0.86610    0.71710    1.000
    C14      C        0.16440    0.75280    0.66880    1.000
    H8       H        0.11780    0.76160    0.60850    1.000
    C15      C        0.23140    0.67810    0.69150    1.000
    C16      C        0.29930    0.66350    0.78510    1.000
    C17      C        0.35700    0.58640    0.81480    1.000
    H9       H        0.35590    0.54360    0.77220    1.000
    C18      C        0.41470    0.57410    0.90580    1.000
    H10      H        0.44860    0.52250    0.92520    1.000
    C19      C        0.42290    0.63860    0.96970    1.000
    H11      H        0.46550    0.62980    0.03090    1.000
    C20      C        0.36970    0.71340    0.94350    1.000
    H12      H        0.37730    0.75570    0.98670    1.000
    C21      C        0.30270    0.72850    0.85130    1.000
    C22      C        0.23350    0.80550    0.82410    1.000
    C23      C        0.23300    0.87530    0.89150    1.000
    C24      C        0.23390    0.61450    0.61640    1.000
    O11      O        0.58910    0.60736    0.43020    1.000
    O12      O        0.87730    0.58709    0.40320    1.000
    O13      O        0.87840    0.92239    0.10170    1.000
    O14      O        0.59110    0.89752    0.07180    1.000
    O15      O        0.75070    0.49377    0.59660    1.000
    C25      C        0.66470    0.68390    0.23440    1.000
    H13      H        0.61760    0.63390    0.21710    1.000
    C26      C        0.66440    0.74720    0.16880    1.000
    H14      H        0.61780    0.73840    0.10850    1.000
    C27      C        0.73140    0.82190    0.19150    1.000
    C28      C        0.79930    0.83650    0.28510    1.000
    C29      C        0.85700    0.91360    0.31480    1.000
    H15      H        0.85590    0.95640    0.27220    1.000
    C30      C        0.91470    0.92590    0.40580    1.000
    H16      H        0.94860    0.97750    0.42520    1.000
    C31      C        0.92290    0.86140    0.46970    1.000
    H17      H        0.96550    0.87020    0.53090    1.000
    C32      C        0.86970    0.78660    0.44350    1.000
    H18      H        0.87730    0.74430    0.48670    1.000
    C33      C        0.80270    0.77150    0.35130    1.000
    C34      C        0.73350    0.69450    0.32410    1.000
    C35      C        0.73300    0.62470    0.39150    1.000
    C36      C        0.73390    0.88550    0.11640    1.000
    O16      O        0.91090    0.10736    0.06980    1.000
    O17      O        0.62270    0.08709    0.09680    1.000
    O18      O        0.62160    0.42239    0.39830    1.000
    O19      O        0.90890    0.39752    0.42820    1.000
    O20      O        0.74930    0.99377    0.90340    1.000
    C37      C        0.83530    0.18390    0.26560    1.000
    H19      H        0.88240    0.13390    0.28290    1.000
    C38      C        0.83560    0.24720    0.33120    1.000
    H20      H        0.88220    0.23840    0.39150    1.000
    C39      C        0.76860    0.32190    0.30850    1.000
    C40      C        0.70070    0.33650    0.21490    1.000
    C41      C        0.64300    0.41360    0.18520    1.000
    H21      H        0.64410    0.45640    0.22780    1.000
    C42      C        0.58530    0.42590    0.09420    1.000
    H22      H        0.55140    0.47750    0.07480    1.000
    C43      C        0.57710    0.36140    0.03030    1.000
    H23      H        0.53450    0.37020    0.96910    1.000
    C44      C        0.63030    0.28660    0.05650    1.000
    H24      H        0.62270    0.24430    0.01330    1.000
    C45      C        0.69730    0.27150    0.14870    1.000
    C46      C        0.76650    0.19450    0.17590    1.000
    C47      C        0.76700    0.12470    0.10850    1.000
    C48      C        0.76610    0.38550    0.38360    1.000
    Mn1      Mn       0.00000    0.50000    0.50000    1.000
    Mn2      Mn       0.50000    0.00000    0.00000    1.000
    Mn3      Mn       0.50000    0.50000    0.50000    1.000
    Mn4      Mn       0.00000    0.00000    0.00000    1.000
