# CIF file generated by openbabel 3.1.0, see https://openbabel.org
data_I
_chemical_name_common 'ja202303b_si_002_clean'
_cell_length_a 26.4728
_cell_length_b 26.4725
_cell_length_c 26.4725
_cell_angle_alpha 109.471
_cell_angle_beta 109.471
_cell_angle_gamma 109.471
_space_group_name_H-M_alt 'P 1'
_space_group_name_Hall 'P 1'
loop_
    _symmetry_equiv_pos_as_xyz
    x,y,z
loop_
    _atom_site_label
    _atom_site_type_symbol
    _atom_site_fract_x
    _atom_site_fract_y
    _atom_site_fract_z
    _atom_site_occupancy
    Si1      Si       0.84171    0.02329    0.44254    1.000
    Si2      Si       0.10083    0.68158    0.15829    1.000
    Si3      Si       0.55746    0.08075    0.89917    1.000
    H1       H        0.45950    0.74800    0.39670    1.000
    H2       H        0.76130    0.87850    0.52000    1.000
    H3       H        0.69320    0.88400    0.55760    1.000
    H4       H        0.23460    0.76140    0.28560    1.000
    H5       H        0.84250    0.93330    0.50140    1.000
    H6       H        0.30600    0.79710    0.38850    1.000
    H7       H        0.52350    0.87980    0.42610    1.000
    H8       H        0.71440    0.97580    0.44900    1.000
    H9       H        0.43720    0.78850    0.54050    1.000
    H10      H        0.40260    0.85630    0.47650    1.000
    H11      H        0.49860    0.93190    0.84110    1.000
    H12      H        0.60330    0.85130    0.56280    1.000
    H13      H        0.25870    0.61720    0.23870    1.000
    H14      H        0.55100    0.02680    0.76540    1.000
    H15      H        0.36440    0.69080    0.30680    1.000
    H16      H        0.15890    0.59080    0.15750    1.000
    H17      H        0.44240    0.82640    0.63560    1.000
    H18      H        0.61150    0.90860    0.41750    1.000
    H19      H        0.58250    0.99110    0.69400    1.000
    H20      H        0.48000    0.85850    0.74130    1.000
    H21      H        0.57390    0.95370    0.59740    1.000
    C1       C        0.50400    0.86780    0.55880    1.000
    C2       C        0.49680    0.90110    0.75830    1.000
    C3       C        0.39490    0.82290    0.44240    1.000
    C4       C        0.50810    0.94240    0.81390    1.000
    C5       C        0.42920    0.75880    0.39480    1.000
    C6       C        0.55260    0.95070    0.66270    1.000
    C7       C        0.18610    0.62850    0.19420    1.000
    C8       C        0.24170    0.64280    0.23850    1.000
    C9       C        0.37190    0.72400    0.34110    1.000
    C10      C        0.55480    0.86380    0.49600    1.000
    C11      C        0.76150    0.90430    0.50320    1.000
    C12      C        0.55760    0.88050    0.45250    1.000
    C13      C        0.60520    0.86400    0.53440    1.000
    C14      C        0.53660    0.99400    0.77240    1.000
    C15      C        0.22760    0.72160    0.26420    1.000
    C16      C        0.80580    0.93430    0.49190    1.000
    C17      C        0.73580    0.95740    0.46340    1.000
    C18      C        0.66120    0.89990    0.48830    1.000
    C19      C        0.46560    0.82960    0.57080    1.000
    C20      C        0.65890    0.88290    0.53080    1.000
    C21      C        0.51170    0.91160    0.67290    1.000
    C22      C        0.44120    0.80900    0.44520    1.000
    C23      C        0.61010    0.89810    0.44740    1.000
    C24      C        0.32710    0.73870    0.33880    1.000
    C25      C        0.54750    0.92800    0.60510    1.000
    C26      C        0.46920    0.85210    0.62810    1.000
    C27      C        0.33730    0.78800    0.38990    1.000
    N1       N        0.78890    0.96530    0.46520    1.000
    N2       N        0.50000    0.84520    0.50000    1.000
    N3       N        0.51570    0.93590    0.73300    1.000
    N4       N        0.53480    0.00010    0.82370    1.000
    N5       N        0.71730    0.92020    0.48430    1.000
    N6       N        0.17630    0.67640    0.21110    1.000
    N7       N        0.26700    0.70290    0.28270    1.000
    Si4      Si       0.44254    0.52329    0.84171    1.000
    Si5      Si       0.89917    0.58075    0.55746    1.000
    Si6      Si       0.15829    0.18158    0.10083    1.000
    H22      H        0.63560    0.32640    0.44240    1.000
    H23      H        0.41750    0.40860    0.61150    1.000
    H24      H        0.44900    0.47580    0.71440    1.000
    H25      H        0.55760    0.38400    0.69320    1.000
    H26      H        0.56280    0.35130    0.60330    1.000
    H27      H        0.52000    0.37850    0.76130    1.000
    H28      H        0.84110    0.43190    0.49860    1.000
    H29      H        0.54050    0.28850    0.43720    1.000
    H30      H        0.15750    0.09080    0.15890    1.000
    H31      H        0.47650    0.35630    0.40260    1.000
    H32      H        0.74130    0.35850    0.48000    1.000
    H33      H        0.30680    0.19080    0.36440    1.000
    H34      H        0.38850    0.29710    0.30600    1.000
    H35      H        0.39670    0.24800    0.45950    1.000
    H36      H        0.42610    0.37980    0.52350    1.000
    H37      H        0.59740    0.45370    0.57390    1.000
    H38      H        0.50140    0.43330    0.84250    1.000
    H39      H        0.23870    0.11720    0.25870    1.000
    H40      H        0.69400    0.49110    0.58250    1.000
    H41      H        0.76540    0.52680    0.55100    1.000
    H42      H        0.28560    0.26140    0.23460    1.000
    C28      C        0.44240    0.32290    0.39490    1.000
    C29      C        0.57080    0.32960    0.46560    1.000
    C30      C        0.46340    0.45740    0.73580    1.000
    C31      C        0.49600    0.36380    0.55480    1.000
    C32      C        0.33880    0.23870    0.32710    1.000
    C33      C        0.26420    0.22160    0.22760    1.000
    C34      C        0.44740    0.39810    0.61010    1.000
    C35      C        0.77240    0.49400    0.53660    1.000
    C36      C        0.34110    0.22400    0.37190    1.000
    C37      C        0.23850    0.14280    0.24170    1.000
    C38      C        0.75830    0.40110    0.49680    1.000
    C39      C        0.50320    0.40430    0.76150    1.000
    C40      C        0.60510    0.42800    0.54750    1.000
    C41      C        0.38990    0.28800    0.33730    1.000
    C42      C        0.81390    0.44240    0.50810    1.000
    C43      C        0.55880    0.36780    0.50400    1.000
    C44      C        0.53440    0.36400    0.60520    1.000
    C45      C        0.49190    0.43430    0.80580    1.000
    C46      C        0.48830    0.39990    0.66120    1.000
    C47      C        0.67290    0.41160    0.51170    1.000
    C48      C        0.19420    0.12850    0.18610    1.000
    C49      C        0.44520    0.30900    0.44120    1.000
    C50      C        0.66270    0.45070    0.55260    1.000
    C51      C        0.62810    0.35210    0.46920    1.000
    C52      C        0.53080    0.38290    0.65890    1.000
    C53      C        0.39480    0.25880    0.42920    1.000
    C54      C        0.45250    0.38050    0.55760    1.000
    N8       N        0.21110    0.17640    0.17630    1.000
    N9       N        0.73300    0.43590    0.51570    1.000
    N10      N        0.28270    0.20290    0.26700    1.000
    N11      N        0.46520    0.46530    0.78890    1.000
    N12      N        0.50000    0.34520    0.50000    1.000
    N13      N        0.82370    0.50010    0.53480    1.000
    N14      N        0.48430    0.42020    0.71730    1.000
    Si7      Si       0.47671    0.81842    0.91925    1.000
    Si8      Si       0.41925    0.47671    0.31842    1.000
    Si9      Si       0.81842    0.41925    0.97671    1.000
    H43      H        0.59140    0.70290    0.00890    1.000
    H44      H        0.80920    0.67360    0.11600    1.000
    H45      H        0.56670    0.90920    0.06810    1.000
    H46      H        0.62020    0.64370    0.04630    1.000
    H47      H        0.67360    0.61600    0.30920    1.000
    H48      H        0.75200    0.71150    0.14870    1.000
    H49      H        0.61600    0.80920    0.17360    1.000
    H50      H        0.50890    0.59140    0.20290    1.000
    H51      H        0.64150    0.62150    0.38280    1.000
    H52      H        0.71150    0.64870    0.25200    1.000
    H53      H        0.56810    0.56670    0.40920    1.000
    H54      H        0.70290    0.50890    0.09140    1.000
    H55      H        0.54630    0.62020    0.14370    1.000
    H56      H        0.47320    0.52420    0.23860    1.000
    H57      H        0.52420    0.73860    0.97320    1.000
    H58      H        0.64370    0.54630    0.12020    1.000
    H59      H        0.73860    0.47320    0.02420    1.000
    H60      H        0.62150    0.88280    0.14150    1.000
    H61      H        0.90920    0.56810    0.06670    1.000
    H62      H        0.64870    0.75200    0.21150    1.000
    H63      H        0.88280    0.64150    0.12150    1.000
    C55      C        0.50600    0.54260    0.27840    1.000
    C56      C        0.54930    0.60190    0.21200    1.000
    C57      C        0.57200    0.61950    0.17710    1.000
    C58      C        0.63600    0.74120    0.17040    1.000
    C59      C        0.64790    0.61710    0.27600    1.000
    C60      C        0.58840    0.60010    0.26130    1.000
    C61      C        0.55760    0.56570    0.37150    1.000
    C62      C        0.77840    0.50600    0.04260    1.000
    C63      C        0.61950    0.67710    0.07200    1.000
    C64      C        0.54260    0.77840    0.00600    1.000
    C65      C        0.59890    0.59570    0.35720    1.000
    C66      C        0.85720    0.59890    0.09570    1.000
    C67      C        0.60190    0.71200    0.04930    1.000
    C68      C        0.59570    0.85720    0.09890    1.000
    C69      C        0.74120    0.67040    0.13600    1.000
    C70      C        0.69100    0.63220    0.13620    1.000
    C71      C        0.63220    0.63620    0.19100    1.000
    C72      C        0.67710    0.57200    0.11950    1.000
    C73      C        0.63620    0.69100    0.13220    1.000
    C74      C        0.77600    0.64790    0.11710    1.000
    C75      C        0.71200    0.54930    0.10190    1.000
    C76      C        0.61710    0.77600    0.14790    1.000
    C77      C        0.76130    0.58840    0.10010    1.000
    C78      C        0.87150    0.55760    0.06570    1.000
    C79      C        0.60010    0.76130    0.08840    1.000
    C80      C        0.67040    0.63600    0.24120    1.000
    C81      C        0.56570    0.87150    0.05760    1.000
    N15      N        0.57980    0.79710    0.06410    1.000
    N16      N        0.79710    0.56410    0.07980    1.000
    N17      N        0.49990    0.53470    0.32360    1.000
    N18      N        0.82360    0.49990    0.03470    1.000
    N19      N        0.65480    0.65480    0.15480    1.000
    N20      N        0.56410    0.57980    0.29710    1.000
    N21      N        0.53470    0.82360    0.99990    1.000
    Si10     Si       0.02329    0.94254    0.34171    1.000
    Si11     Si       0.08075    0.39917    0.05746    1.000
    Si12     Si       0.68158    0.65829    0.60083    1.000
    H64      H        0.76140    0.78560    0.73460    1.000
    H65      H        0.74800    0.89670    0.95950    1.000
    H66      H        0.88400    0.05760    0.19320    1.000
    H67      H        0.95370    0.09740    0.07390    1.000
    H68      H        0.82640    0.13560    0.94240    1.000
    H69      H        0.02680    0.26540    0.05100    1.000
    H70      H        0.90860    0.91750    0.11150    1.000
    H71      H        0.97580    0.94900    0.21440    1.000
    H72      H        0.79710    0.88850    0.80600    1.000
    H73      H        0.61720    0.73870    0.75870    1.000
    H74      H        0.99110    0.19400    0.08250    1.000
    H75      H        0.69080    0.80680    0.86440    1.000
    H76      H        0.78850    0.04050    0.93720    1.000
    H77      H        0.85630    0.97650    0.90260    1.000
    H78      H        0.93330    0.00140    0.34250    1.000
    H79      H        0.87980    0.92610    0.02350    1.000
    H80      H        0.87850    0.02000    0.26130    1.000
    H81      H        0.85850    0.24130    0.98000    1.000
    H82      H        0.85130    0.06280    0.10330    1.000
    H83      H        0.59080    0.65750    0.65890    1.000
    H84      H        0.93190    0.34110    0.99860    1.000
    C82      C        0.86780    0.05880    0.00400    1.000
    C83      C        0.95740    0.96340    0.23580    1.000
    C84      C        0.91160    0.17290    0.01170    1.000
    C85      C        0.88290    0.03080    0.15890    1.000
    C86      C        0.62850    0.69420    0.68610    1.000
    C87      C        0.90430    0.00320    0.26150    1.000
    C88      C        0.88050    0.95250    0.05760    1.000
    C89      C        0.82290    0.94240    0.89490    1.000
    C90      C        0.75880    0.89480    0.92920    1.000
    C91      C        0.89990    0.98830    0.16120    1.000
    C92      C        0.64280    0.73850    0.74170    1.000
    C93      C        0.94240    0.31390    0.00810    1.000
    C94      C        0.86400    0.03440    0.10520    1.000
    C95      C        0.80900    0.94520    0.94120    1.000
    C96      C        0.95070    0.16270    0.05260    1.000
    C97      C        0.72400    0.84110    0.87190    1.000
    C98      C        0.86380    0.99600    0.05480    1.000
    C99      C        0.72160    0.76420    0.72760    1.000
    C100     C        0.85210    0.12810    0.96920    1.000
    C101     C        0.73870    0.83880    0.82710    1.000
    C102     C        0.78800    0.88990    0.83730    1.000
    C103     C        0.92800    0.10510    0.04750    1.000
    C104     C        0.82960    0.07080    0.96560    1.000
    C105     C        0.93430    0.99190    0.30580    1.000
    C106     C        0.90110    0.25830    0.99680    1.000
    C107     C        0.89810    0.94740    0.11010    1.000
    C108     C        0.99400    0.27240    0.03660    1.000
    N22      N        0.00010    0.32370    0.03480    1.000
    N23      N        0.84520    0.00000    0.00000    1.000
    N24      N        0.96530    0.96520    0.28890    1.000
    N25      N        0.93590    0.23300    0.01570    1.000
    N26      N        0.92020    0.98430    0.21730    1.000
    N27      N        0.70290    0.78270    0.76700    1.000
    N28      N        0.67640    0.71110    0.67630    1.000
    Si13     Si       0.65829    0.10083    0.18158    1.000
    Si14     Si       0.39917    0.55746    0.58075    1.000
    Si15     Si       0.94254    0.84171    0.52329    1.000
    H85      H        0.34110    0.49860    0.43190    1.000
    H86      H        0.04050    0.43720    0.28850    1.000
    H87      H        0.80680    0.36440    0.19080    1.000
    H88      H        0.26540    0.55100    0.52680    1.000
    H89      H        0.13560    0.44240    0.32640    1.000
    H90      H        0.06280    0.60330    0.35130    1.000
    H91      H        0.88850    0.30600    0.29710    1.000
    H92      H        0.89670    0.45950    0.24800    1.000
    H93      H        0.65750    0.15890    0.09080    1.000
    H94      H        0.78560    0.23460    0.26140    1.000
    H95      H        0.94900    0.71440    0.47580    1.000
    H96      H        0.05760    0.69320    0.38400    1.000
    H97      H        0.97650    0.40260    0.35630    1.000
    H98      H        0.91750    0.61150    0.40860    1.000
    H99      H        0.19400    0.58250    0.49110    1.000
    H100     H        0.02000    0.76130    0.37850    1.000
    H101     H        0.00140    0.84250    0.43330    1.000
    H102     H        0.73870    0.25870    0.11720    1.000
    H103     H        0.24130    0.48000    0.35850    1.000
    H104     H        0.92610    0.52350    0.37980    1.000
    H105     H        0.09740    0.57390    0.45370    1.000
    C109     C        0.07080    0.46560    0.32960    1.000
    C110     C        0.00320    0.76150    0.40430    1.000
    C111     C        0.99600    0.55480    0.36380    1.000
    C112     C        0.98830    0.66120    0.39990    1.000
    C113     C        0.73850    0.24170    0.14280    1.000
    C114     C        0.94520    0.44120    0.30900    1.000
    C115     C        0.95250    0.55760    0.38050    1.000
    C116     C        0.76420    0.22760    0.22160    1.000
    C117     C        0.96340    0.73580    0.45740    1.000
    C118     C        0.88990    0.33730    0.28800    1.000
    C119     C        0.05880    0.50400    0.36780    1.000
    C120     C        0.10510    0.54750    0.42800    1.000
    C121     C        0.99190    0.80580    0.43430    1.000
    C122     C        0.25830    0.49680    0.40110    1.000
    C123     C        0.83880    0.32710    0.23870    1.000
    C124     C        0.12810    0.46920    0.35210    1.000
    C125     C        0.17290    0.51170    0.41160    1.000
    C126     C        0.31390    0.50810    0.44240    1.000
    C127     C        0.27240    0.53660    0.49400    1.000
    C128     C        0.94240    0.39490    0.32290    1.000
    C129     C        0.03440    0.60520    0.36400    1.000
    C130     C        0.84110    0.37190    0.22400    1.000
    C131     C        0.03080    0.65890    0.38290    1.000
    C132     C        0.16270    0.55260    0.45070    1.000
    C133     C        0.94740    0.61010    0.39810    1.000
    C134     C        0.89480    0.42920    0.25880    1.000
    C135     C        0.69420    0.18610    0.12850    1.000
    N29      N        0.00000    0.50000    0.34520    1.000
    N30      N        0.23300    0.51570    0.43590    1.000
    N31      N        0.71110    0.17630    0.17640    1.000
    N32      N        0.78270    0.26700    0.20290    1.000
    N33      N        0.96520    0.78890    0.46530    1.000
    N34      N        0.32370    0.53480    0.50010    1.000
    N35      N        0.98430    0.71730    0.42020    1.000
    Si16     Si       0.60083    0.15829    0.68158    1.000
    Si17     Si       0.05746    0.89917    0.08075    1.000
    Si18     Si       0.34171    0.44254    0.02329    1.000
    H106     H        0.95950    0.39670    0.74800    1.000
    H107     H        0.65890    0.15750    0.59080    1.000
    H108     H        0.80600    0.38850    0.79710    1.000
    H109     H        0.98000    0.74130    0.85850    1.000
    H110     H        0.07390    0.59740    0.95370    1.000
    H111     H        0.90260    0.47650    0.85630    1.000
    H112     H        0.19320    0.55760    0.88400    1.000
    H113     H        0.21440    0.44900    0.97580    1.000
    H114     H        0.99860    0.84110    0.93190    1.000
    H115     H        0.34250    0.50140    0.93330    1.000
    H116     H        0.05100    0.76540    0.02680    1.000
    H117     H        0.73460    0.28560    0.76140    1.000
    H118     H        0.75870    0.23870    0.61720    1.000
    H119     H        0.10330    0.56280    0.85130    1.000
    H120     H        0.08250    0.69400    0.99110    1.000
    H121     H        0.11150    0.41750    0.90860    1.000
    H122     H        0.86440    0.30680    0.69080    1.000
    H123     H        0.93720    0.54050    0.78850    1.000
    H124     H        0.26130    0.52000    0.87850    1.000
    H125     H        0.94240    0.63560    0.82640    1.000
    H126     H        0.02350    0.42610    0.87980    1.000
    C136     C        0.72760    0.26420    0.72160    1.000
    C137     C        0.15890    0.53080    0.88290    1.000
    C138     C        0.83730    0.38990    0.78800    1.000
    C139     C        0.16120    0.48830    0.89990    1.000
    C140     C        0.94120    0.44520    0.80900    1.000
    C141     C        0.10520    0.53440    0.86400    1.000
    C142     C        0.26150    0.50320    0.90430    1.000
    C143     C        0.87190    0.34110    0.72400    1.000
    C144     C        0.05760    0.45250    0.88050    1.000
    C145     C        0.30580    0.49190    0.93430    1.000
    C146     C        0.00400    0.55880    0.86780    1.000
    C147     C        0.01170    0.67290    0.91160    1.000
    C148     C        0.03660    0.77240    0.99400    1.000
    C149     C        0.92920    0.39480    0.75880    1.000
    C150     C        0.04750    0.60510    0.92800    1.000
    C151     C        0.96920    0.62810    0.85210    1.000
    C152     C        0.74170    0.23850    0.64280    1.000
    C153     C        0.05480    0.49600    0.86380    1.000
    C154     C        0.11010    0.44740    0.89810    1.000
    C155     C        0.00810    0.81390    0.94240    1.000
    C156     C        0.96560    0.57080    0.82960    1.000
    C157     C        0.89490    0.44240    0.82290    1.000
    C158     C        0.68610    0.19420    0.62850    1.000
    C159     C        0.99680    0.75830    0.90110    1.000
    C160     C        0.23580    0.46340    0.95740    1.000
    C161     C        0.05260    0.66270    0.95070    1.000
    C162     C        0.82710    0.33880    0.73870    1.000
    N36      N        0.76700    0.28270    0.70290    1.000
    N37      N        0.00000    0.50000    0.84520    1.000
    N38      N        0.28890    0.46520    0.96530    1.000
    N39      N        0.67630    0.21110    0.67640    1.000
    N40      N        0.21730    0.48430    0.92020    1.000
    N41      N        0.01570    0.73300    0.93590    1.000
    N42      N        0.03480    0.82370    0.00010    1.000
    Si19     Si       0.97671    0.91925    0.81842    1.000
    Si20     Si       0.91925    0.31842    0.47671    1.000
    Si21     Si       0.31842    0.97671    0.41925    1.000
    H127     H        0.14150    0.38280    0.62150    1.000
    H128     H        0.00890    0.20290    0.59140    1.000
    H129     H        0.14370    0.12020    0.54630    1.000
    H130     H        0.14870    0.21150    0.75200    1.000
    H131     H        0.23860    0.02420    0.47320    1.000
    H132     H        0.30920    0.11600    0.67360    1.000
    H133     H        0.21150    0.25200    0.64870    1.000
    H134     H        0.12020    0.04630    0.64370    1.000
    H135     H        0.38280    0.12150    0.64150    1.000
    H136     H        0.25200    0.14870    0.71150    1.000
    H137     H        0.12150    0.14150    0.88280    1.000
    H138     H        0.20290    0.09140    0.50890    1.000
    H139     H        0.02420    0.97320    0.73860    1.000
    H140     H        0.06810    0.40920    0.56670    1.000
    H141     H        0.17360    0.30920    0.61600    1.000
    H142     H        0.09140    0.00890    0.70290    1.000
    H143     H        0.11600    0.17360    0.80920    1.000
    H144     H        0.40920    0.06670    0.56810    1.000
    H145     H        0.04630    0.14370    0.62020    1.000
    H146     H        0.06670    0.06810    0.90920    1.000
    H147     H        0.97320    0.23860    0.52420    1.000
    C163     C        0.17040    0.24120    0.63600    1.000
    C164     C        0.09890    0.35720    0.59570    1.000
    C165     C        0.13620    0.13220    0.69100    1.000
    C166     C        0.35720    0.09570    0.59890    1.000
    C167     C        0.00600    0.27840    0.54260    1.000
    C168     C        0.13600    0.17040    0.74120    1.000
    C169     C        0.27600    0.11710    0.64790    1.000
    C170     C        0.05760    0.37150    0.56570    1.000
    C171     C        0.04930    0.21200    0.60190    1.000
    C172     C        0.24120    0.13600    0.67040    1.000
    C173     C        0.11710    0.14790    0.77600    1.000
    C174     C        0.26130    0.10010    0.58840    1.000
    C175     C        0.11950    0.07200    0.67710    1.000
    C176     C        0.06570    0.05760    0.87150    1.000
    C177     C        0.08840    0.26130    0.60010    1.000
    C178     C        0.19100    0.13620    0.63220    1.000
    C179     C        0.27840    0.04260    0.50600    1.000
    C180     C        0.09570    0.09890    0.85720    1.000
    C181     C        0.13220    0.19100    0.63620    1.000
    C182     C        0.21200    0.10190    0.54930    1.000
    C183     C        0.14790    0.27600    0.61710    1.000
    C184     C        0.10010    0.08840    0.76130    1.000
    C185     C        0.07200    0.17710    0.61950    1.000
    C186     C        0.10190    0.04930    0.71200    1.000
    C187     C        0.37150    0.06570    0.55760    1.000
    C188     C        0.04260    0.00600    0.77840    1.000
    C189     C        0.17710    0.11950    0.57200    1.000
    N43      N        0.15480    0.15480    0.65480    1.000
    N44      N        0.03470    0.99990    0.82360    1.000
    N45      N        0.06410    0.29710    0.57980    1.000
    N46      N        0.29710    0.07980    0.56410    1.000
    N47      N        0.07980    0.06410    0.79710    1.000
    N48      N        0.32360    0.03470    0.49990    1.000
    N49      N        0.99990    0.32360    0.53470    1.000
    Si22     Si       0.18158    0.60083    0.65829    1.000
    Si23     Si       0.58075    0.05746    0.39917    1.000
    Si24     Si       0.52329    0.34171    0.94254    1.000
    H148     H        0.45370    0.07390    0.09740    1.000
    H149     H        0.47580    0.21440    0.94900    1.000
    H150     H        0.35850    0.98000    0.24130    1.000
    H151     H        0.28850    0.93720    0.04050    1.000
    H152     H        0.43190    0.99860    0.34110    1.000
    H153     H        0.09080    0.65890    0.65750    1.000
    H154     H        0.49110    0.08250    0.19400    1.000
    H155     H        0.24800    0.95950    0.89670    1.000
    H156     H        0.11720    0.75870    0.73870    1.000
    H157     H        0.19080    0.86440    0.80680    1.000
    H158     H        0.37850    0.26130    0.02000    1.000
    H159     H        0.52680    0.05100    0.26540    1.000
    H160     H        0.37980    0.02350    0.92610    1.000
    H161     H        0.29710    0.80600    0.88850    1.000
    H162     H        0.35130    0.10330    0.06280    1.000
    H163     H        0.43330    0.34250    0.00140    1.000
    H164     H        0.26140    0.73460    0.78560    1.000
    H165     H        0.35630    0.90260    0.97650    1.000
    H166     H        0.40860    0.11150    0.91750    1.000
    H167     H        0.32640    0.94240    0.13560    1.000
    H168     H        0.38400    0.19320    0.05760    1.000
    C190     C        0.23870    0.82710    0.83880    1.000
    C191     C        0.36400    0.10520    0.03440    1.000
    C192     C        0.35210    0.96920    0.12810    1.000
    C193     C        0.39810    0.11010    0.94740    1.000
    C194     C        0.36380    0.05480    0.99600    1.000
    C195     C        0.45070    0.05260    0.16270    1.000
    C196     C        0.36780    0.00400    0.05880    1.000
    C197     C        0.28800    0.83730    0.88990    1.000
    C198     C        0.38290    0.15890    0.03080    1.000
    C199     C        0.43430    0.30580    0.99190    1.000
    C200     C        0.49400    0.03660    0.27240    1.000
    C201     C        0.38050    0.05760    0.95250    1.000
    C202     C        0.41160    0.01170    0.17290    1.000
    C203     C        0.39990    0.16120    0.98830    1.000
    C204     C        0.12850    0.68610    0.69420    1.000
    C205     C        0.30900    0.94120    0.94520    1.000
    C206     C        0.40110    0.99680    0.25830    1.000
    C207     C        0.22400    0.87190    0.84110    1.000
    C208     C        0.22160    0.72760    0.76420    1.000
    C209     C        0.44240    0.00810    0.31390    1.000
    C210     C        0.45740    0.23580    0.96340    1.000
    C211     C        0.32960    0.96560    0.07080    1.000
    C212     C        0.25880    0.92920    0.89480    1.000
    C213     C        0.32290    0.89490    0.94240    1.000
    C214     C        0.14280    0.74170    0.73850    1.000
    C215     C        0.40430    0.26150    0.00320    1.000
    C216     C        0.42800    0.04750    0.10510    1.000
    N50      N        0.20290    0.76700    0.78270    1.000
    N51      N        0.42020    0.21730    0.98430    1.000
    N52      N        0.43590    0.01570    0.23300    1.000
    N53      N        0.46530    0.28890    0.96520    1.000
    N54      N        0.50010    0.03480    0.32370    1.000
    N55      N        0.34520    0.00000    0.00000    1.000
    N56      N        0.17640    0.67630    0.71110    1.000
    H169     H        0.05240    0.25030    0.44710    1.000
    H170     H        0.19680    0.24970    0.30210    1.000
    H171     H        0.31660    0.35820    0.51640    1.000
    H172     H        0.37570    0.20610    0.54600    1.000
    H173     H        0.33990    0.29390    0.66960    1.000
    H174     H        0.37780    0.40590    0.38730    1.000
    H175     H        0.98140    0.09410    0.47190    1.000
    H176     H        0.94070    0.16990    0.37120    1.000
    H177     H        0.17400    0.20510    0.35770    1.000
    H178     H        0.34110    0.40160    0.45930    1.000
    H179     H        0.26150    0.39780    0.24130    1.000
    H180     H        0.20130    0.33010    0.27080    1.000
    H181     H        0.29980    0.20480    0.46840    1.000
    H182     H        0.15820    0.14180    0.45840    1.000
    H183     H        0.15260    0.29490    0.46890    1.000
    H184     H        0.26360    0.29520    0.59500    1.000
    H185     H        0.05770    0.09840    0.43950    1.000
    H186     H        0.84350    0.10220    0.36370    1.000
    C217     C        0.36450    0.25000    0.61450    1.000
    C218     C        0.34160    0.39520    0.35420    1.000
    C219     C        0.28590    0.27700    0.58450    1.000
    C220     C        0.35290    0.22390    0.55560    1.000
    C221     C        0.24290    0.27620    0.44290    1.000
    C222     C        0.13730    0.16390    0.45700    1.000
    C223     C        0.30750    0.22300    0.50890    1.000
    C224     C        0.88300    0.10930    0.38670    1.000
    C225     C        0.16670    0.22380    0.46670    1.000
    C226     C        0.20750    0.24480    0.37830    1.000
    C227     C        0.24400    0.35360    0.29020    1.000
    C228     C        0.04560    0.17090    0.44190    1.000
    C229     C        0.49320    0.24830    0.71350    1.000
    C230     C        0.95900    0.10480    0.44640    1.000
    C231     C        0.30730    0.36210    0.43940    1.000
    C232     C        0.22120    0.27110    0.34490    1.000
    C233     C        0.27740    0.39070    0.27370    1.000
    C234     C        0.46250    0.24930    0.66220    1.000
    C235     C        0.93660    0.14640    0.39040    1.000
    C236     C        0.27450    0.25000    0.52450    1.000
    C237     C        0.27100    0.32910    0.37470    1.000
    C238     C        0.07730    0.13790    0.44520    1.000
    C239     C        0.33170    0.27610    0.62900    1.000
    C240     C        0.46520    0.25170    0.74490    1.000
    C241     C        0.29310    0.33610    0.47340    1.000
    C242     C        0.07380    0.22890    0.45010    1.000
    C243     C        0.41290    0.25070    0.71320    1.000
    C244     C        0.13350    0.25520    0.46270    1.000
    N57      N        0.28590    0.35850    0.34020    1.000
    N58      N        0.22750    0.25000    0.47750    1.000
    N59      N        0.89930    0.08510    0.42360    1.000
    N60      N        0.41190    0.25000    0.66190    1.000
    N61      N        0.98170    0.14150    0.42740    1.000
    N62      N        0.33850    0.41490    0.31420    1.000
    H187     H        0.80320    0.05290    0.60530    1.000
    H188     H        0.01860    0.11270    0.99050    1.000
    H189     H        0.94230    0.04070    0.88180    1.000
    H190     H        0.62220    0.02810    0.50950    1.000
    H191     H        0.15650    0.25870    0.02020    1.000
    H192     H        0.70020    0.90500    0.66860    1.000
    H193     H        0.66010    0.95400    0.82970    1.000
    H194     H        0.79870    0.12880    0.56950    1.000
    H195     H        0.84180    0.98360    0.80020    1.000
    H196     H        0.73850    0.13630    0.47980    1.000
    H197     H        0.68340    0.04160    0.69980    1.000
    H198     H        0.65890    0.06050    0.61820    1.000
    H199     H        0.82600    0.03110    0.68370    1.000
    H200     H        0.94760    0.19790    0.89470    1.000
    H201     H        0.05930    0.22920    0.93050    1.000
    H202     H        0.84740    0.14230    0.81630    1.000
    H203     H        0.73640    0.03160    0.83140    1.000
    H204     H        0.62430    0.83040    0.67030    1.000
    C245     C        0.75710    0.03330    0.70000    1.000
    C246     C        0.70690    0.04300    0.68030    1.000
    C247     C        0.63550    0.88550    0.75000    1.000
    C248     C        0.66830    0.94440    0.79730    1.000
    C249     C        0.53750    0.78680    0.69970    1.000
    C250     C        0.77880    0.04990    0.62370    1.000
    C251     C        0.69250    0.91550    0.70140    1.000
    C252     C        0.50680    0.75510    0.72030    1.000
    C253     C        0.75600    0.10960    0.54620    1.000
    C254     C        0.53480    0.78650    0.77970    1.000
    C255     C        0.72260    0.11330    0.49630    1.000
    C256     C        0.72550    0.97550    0.75000    1.000
    C257     C        0.65840    0.05360    0.51260    1.000
    C258     C        0.95440    0.12530    0.89630    1.000
    C259     C        0.86650    0.12170    0.82920    1.000
    C260     C        0.04100    0.14580    0.98740    1.000
    C261     C        0.79250    0.03730    0.67080    1.000
    C262     C        0.86270    0.02660    0.81970    1.000
    C263     C        0.58710    0.83780    0.80030    1.000
    C264     C        0.06340    0.20980    0.95380    1.000
    C265     C        0.69270    0.05480    0.63210    1.000
    C266     C        0.83330    0.05710    0.80000    1.000
    C267     C        0.92620    0.15510    0.87630    1.000
    C268     C        0.72900    0.05810    0.60370    1.000
    C269     C        0.71410    0.99110    0.79860    1.000
    C270     C        0.64710    0.87100    0.70270    1.000
    C271     C        0.92270    0.06060    0.86790    1.000
    C272     C        0.11700    0.22630    0.00370    1.000
    N63      N        0.77250    0.02250    0.75000    1.000
    N64      N        0.10070    0.18580    0.02430    1.000
    N65      N        0.66150    0.07640    0.47570    1.000
    N66      N        0.58810    0.83810    0.75000    1.000
    N67      N        0.01830    0.15980    0.94570    1.000
    N68      N        0.71410    0.07260    0.55430    1.000
    H205     H        0.10220    0.86370    0.34350    1.000
    H206     H        0.40590    0.88730    0.87780    1.000
    H207     H        0.16990    0.87120    0.44070    1.000
    H208     H        0.29520    0.09500    0.76360    1.000
    H209     H        0.39780    0.74130    0.76150    1.000
    H210     H        0.20510    0.85770    0.67400    1.000
    H211     H        0.14180    0.95840    0.65820    1.000
    H212     H        0.33010    0.77080    0.70130    1.000
    H213     H        0.29490    0.96890    0.65260    1.000
    H214     H        0.24970    0.80210    0.69680    1.000
    H215     H        0.20480    0.96840    0.79980    1.000
    H216     H        0.09410    0.97190    0.48140    1.000
    H217     H        0.09840    0.93950    0.55770    1.000
    H218     H        0.20610    0.04600    0.87570    1.000
    H219     H        0.25030    0.94710    0.55240    1.000
    H220     H        0.29390    0.16960    0.83990    1.000
    H221     H        0.35820    0.01640    0.81660    1.000
    H222     H        0.40160    0.95930    0.84110    1.000
    C273     C        0.22890    0.95010    0.57380    1.000
    C274     C        0.10480    0.94640    0.45900    1.000
    C275     C        0.22380    0.96670    0.66670    1.000
    C276     C        0.24830    0.21350    0.99320    1.000
    C277     C        0.35360    0.79020    0.74400    1.000
    C278     C        0.25070    0.21320    0.91290    1.000
    C279     C        0.36210    0.93940    0.80730    1.000
    C280     C        0.17090    0.94190    0.54560    1.000
    C281     C        0.24930    0.16220    0.96250    1.000
    C282     C        0.27620    0.94290    0.74290    1.000
    C283     C        0.16390    0.95700    0.63730    1.000
    C284     C        0.25000    0.11450    0.86450    1.000
    C285     C        0.25170    0.24490    0.96520    1.000
    C286     C        0.33610    0.97340    0.79310    1.000
    C287     C        0.27110    0.84490    0.72120    1.000
    C288     C        0.10930    0.88670    0.38300    1.000
    C289     C        0.22390    0.05560    0.85290    1.000
    C290     C        0.27700    0.08450    0.78590    1.000
    C291     C        0.24480    0.87830    0.70750    1.000
    C292     C        0.25000    0.02450    0.77450    1.000
    C293     C        0.39520    0.85420    0.84160    1.000
    C294     C        0.27610    0.12900    0.83170    1.000
    C295     C        0.14640    0.89040    0.43660    1.000
    C296     C        0.25520    0.96270    0.63350    1.000
    C297     C        0.22300    0.00890    0.80750    1.000
    C298     C        0.39070    0.77370    0.77740    1.000
    C299     C        0.13790    0.94520    0.57730    1.000
    C300     C        0.32910    0.87470    0.77100    1.000
    N69      N        0.35850    0.84020    0.78590    1.000
    N70      N        0.08510    0.92360    0.39930    1.000
    N71      N        0.25000    0.97750    0.72750    1.000
    N72      N        0.41490    0.81420    0.83850    1.000
    N73      N        0.14150    0.92740    0.48170    1.000
    N74      N        0.25000    0.16190    0.91190    1.000
    H223     H        0.20020    0.66860    0.90500    1.000
    H224     H        0.44760    0.89470    0.19790    1.000
    H225     H        0.16010    0.82970    0.95400    1.000
    H226     H        0.30320    0.60530    0.05290    1.000
    H227     H        0.18340    0.69980    0.04160    1.000
    H228     H        0.44230    0.88180    0.04070    1.000
    H229     H        0.32600    0.68370    0.03110    1.000
    H230     H        0.23850    0.47980    0.13630    1.000
    H231     H        0.23640    0.83140    0.03160    1.000
    H232     H        0.55930    0.93050    0.22920    1.000
    H233     H        0.29870    0.56950    0.12880    1.000
    H234     H        0.34180    0.80020    0.98360    1.000
    H235     H        0.51860    0.99050    0.11270    1.000
    H236     H        0.12220    0.50950    0.02810    1.000
    H237     H        0.34740    0.81630    0.14230    1.000
    H238     H        0.65650    0.02020    0.25870    1.000
    H239     H        0.15890    0.61820    0.06050    1.000
    H240     H        0.12430    0.67030    0.83040    1.000
    C301     C        0.15840    0.51260    0.05360    1.000
    C302     C        0.22550    0.75000    0.97550    1.000
    C303     C        0.13550    0.75000    0.88550    1.000
    C304     C        0.16830    0.79730    0.94440    1.000
    C305     C        0.45440    0.89630    0.12530    1.000
    C306     C        0.29250    0.67080    0.03730    1.000
    C307     C        0.22260    0.49630    0.11330    1.000
    C308     C        0.36650    0.82920    0.12170    1.000
    C309     C        0.61700    0.00370    0.22630    1.000
    C310     C        0.42620    0.87630    0.15510    1.000
    C311     C        0.27880    0.62370    0.04990    1.000
    C312     C        0.33330    0.80000    0.05710    1.000
    C313     C        0.03480    0.77970    0.78650    1.000
    C314     C        0.20690    0.68030    0.04300    1.000
    C315     C        0.19270    0.63210    0.05480    1.000
    C316     C        0.56340    0.95380    0.20980    1.000
    C317     C        0.25710    0.70000    0.03330    1.000
    C318     C        0.36270    0.81970    0.02660    1.000
    C319     C        0.21410    0.79860    0.99110    1.000
    C320     C        0.54100    0.98740    0.14580    1.000
    C321     C        0.25600    0.54620    0.10960    1.000
    C322     C        0.08710    0.80030    0.83780    1.000
    C323     C        0.19250    0.70140    0.91550    1.000
    C324     C        0.42270    0.86790    0.06060    1.000
    C325     C        0.00680    0.72030    0.75510    1.000
    C326     C        0.22900    0.60370    0.05810    1.000
    C327     C        0.03750    0.69970    0.78680    1.000
    C328     C        0.14710    0.70270    0.87100    1.000
    N75      N        0.51830    0.94570    0.15980    1.000
    N76      N        0.21410    0.55430    0.07260    1.000
    N77      N        0.08810    0.75000    0.83810    1.000
    N78      N        0.60070    0.02430    0.18580    1.000
    N79      N        0.27250    0.75000    0.02250    1.000
    N80      N        0.16150    0.47570    0.07640    1.000
    H241     H        0.52020    0.15650    0.75870    1.000
    H242     H        0.19980    0.68340    0.54160    1.000
    H243     H        0.39470    0.94760    0.69790    1.000
    H244     H        0.17030    0.62430    0.33040    1.000
    H245     H        0.43050    0.05930    0.72920    1.000
    H246     H        0.32970    0.66010    0.45400    1.000
    H247     H        0.49050    0.01860    0.61270    1.000
    H248     H        0.16860    0.70020    0.40500    1.000
    H249     H        0.00950    0.62220    0.52810    1.000
    H250     H        0.31630    0.84740    0.64230    1.000
    H251     H        0.97980    0.73850    0.63630    1.000
    H252     H        0.38180    0.94230    0.54070    1.000
    H253     H        0.33140    0.73640    0.53160    1.000
    H254     H        0.30020    0.84180    0.48360    1.000
    H255     H        0.06950    0.79870    0.62880    1.000
    H256     H        0.11820    0.65890    0.56050    1.000
    H257     H        0.18370    0.82600    0.53110    1.000
    H258     H        0.10530    0.80320    0.55290    1.000
    C329     C        0.01260    0.65840    0.55360    1.000
    C330     C        0.20270    0.64710    0.37100    1.000
    C331     C        0.27970    0.53480    0.28650    1.000
    C332     C        0.31970    0.86270    0.52660    1.000
    C333     C        0.45380    0.06340    0.70980    1.000
    C334     C        0.30000    0.83330    0.55710    1.000
    C335     C        0.04620    0.75600    0.60960    1.000
    C336     C        0.37630    0.92620    0.65510    1.000
    C337     C        0.18030    0.70690    0.54300    1.000
    C338     C        0.25000    0.72550    0.47550    1.000
    C339     C        0.99630    0.72260    0.61330    1.000
    C340     C        0.17080    0.79250    0.53730    1.000
    C341     C        0.13210    0.69270    0.55480    1.000
    C342     C        0.39630    0.95440    0.62530    1.000
    C343     C        0.10370    0.72900    0.55810    1.000
    C344     C        0.36790    0.92270    0.56060    1.000
    C345     C        0.32920    0.86650    0.62170    1.000
    C346     C        0.19970    0.53750    0.28680    1.000
    C347     C        0.25000    0.63550    0.38550    1.000
    C348     C        0.20140    0.69250    0.41550    1.000
    C349     C        0.12370    0.77880    0.54990    1.000
    C350     C        0.22030    0.50680    0.25510    1.000
    C351     C        0.29730    0.66830    0.44440    1.000
    C352     C        0.20000    0.75710    0.53330    1.000
    C353     C        0.29860    0.71410    0.49110    1.000
    C354     C        0.50370    0.11700    0.72630    1.000
    C355     C        0.30030    0.58710    0.33780    1.000
    C356     C        0.48740    0.04100    0.64580    1.000
    N81      N        0.05430    0.71410    0.57260    1.000
    N82      N        0.52430    0.10070    0.68580    1.000
    N83      N        0.97570    0.66150    0.57640    1.000
    N84      N        0.25000    0.58810    0.33810    1.000
    N85      N        0.25000    0.77250    0.52250    1.000
    N86      N        0.44570    0.01830    0.65980    1.000
    H259     H        0.04070    0.38180    0.44230    1.000
    H260     H        0.95400    0.32970    0.16010    1.000
    H261     H        0.03160    0.33140    0.23640    1.000
    H262     H        0.19790    0.39470    0.44760    1.000
    H263     H        0.90500    0.16860    0.20020    1.000
    H264     H        0.11270    0.49050    0.51860    1.000
    H265     H        0.03110    0.18370    0.32600    1.000
    H266     H        0.02810    0.00950    0.12220    1.000
    H267     H        0.14230    0.31630    0.34740    1.000
    H268     H        0.04160    0.19980    0.18340    1.000
    H269     H        0.25870    0.52020    0.65650    1.000
    H270     H        0.22920    0.43050    0.55930    1.000
    H271     H        0.13630    0.97980    0.23850    1.000
    H272     H        0.98360    0.30020    0.34180    1.000
    H273     H        0.12880    0.06950    0.29870    1.000
    H274     H        0.83040    0.17030    0.12430    1.000
    H275     H        0.05290    0.10530    0.30320    1.000
    H276     H        0.06050    0.11820    0.15890    1.000
    C357     C        0.22630    0.50370    0.61700    1.000
    C358     C        0.99110    0.29860    0.21410    1.000
    C359     C        0.05810    0.10370    0.22900    1.000
    C360     C        0.11330    0.99630    0.22260    1.000
    C361     C        0.78680    0.19970    0.03750    1.000
    C362     C        0.97550    0.25000    0.22550    1.000
    C363     C        0.02660    0.31970    0.36270    1.000
    C364     C        0.12170    0.32920    0.36650    1.000
    C365     C        0.03330    0.20000    0.25710    1.000
    C366     C        0.20980    0.45380    0.56340    1.000
    C367     C        0.04990    0.12370    0.27880    1.000
    C368     C        0.03730    0.17080    0.29250    1.000
    C369     C        0.05360    0.01260    0.15840    1.000
    C370     C        0.14580    0.48740    0.54100    1.000
    C371     C        0.83780    0.30030    0.08710    1.000
    C372     C        0.75510    0.22030    0.00680    1.000
    C373     C        0.05480    0.13210    0.19270    1.000
    C374     C        0.12530    0.39630    0.45440    1.000
    C375     C        0.91550    0.20140    0.19250    1.000
    C376     C        0.78650    0.27970    0.03480    1.000
    C377     C        0.06060    0.36790    0.42270    1.000
    C378     C        0.04300    0.18030    0.20690    1.000
    C379     C        0.94440    0.29730    0.16830    1.000
    C380     C        0.87100    0.20270    0.14710    1.000
    C381     C        0.88550    0.25000    0.13550    1.000
    C382     C        0.15510    0.37630    0.42620    1.000
    C383     C        0.10960    0.04620    0.25600    1.000
    C384     C        0.05710    0.30000    0.33330    1.000
    N87      N        0.15980    0.44570    0.51830    1.000
    N88      N        0.07260    0.05430    0.21410    1.000
    N89      N        0.07640    0.97570    0.16150    1.000
    N90      N        0.18580    0.52430    0.60070    1.000
    N91      N        0.83810    0.25000    0.08810    1.000
    N92      N        0.02250    0.25000    0.27250    1.000
    H277     H        0.72920    0.55930    0.43050    1.000
    H278     H        0.75870    0.65650    0.52020    1.000
    H279     H        0.54160    0.18340    0.19980    1.000
    H280     H        0.53110    0.32600    0.18370    1.000
    H281     H        0.61270    0.51860    0.49050    1.000
    H282     H        0.52810    0.12220    0.00950    1.000
    H283     H        0.69790    0.44760    0.39470    1.000
    H284     H        0.63630    0.23850    0.97980    1.000
    H285     H        0.56050    0.15890    0.11820    1.000
    H286     H        0.45400    0.16010    0.32970    1.000
    H287     H        0.33040    0.12430    0.17030    1.000
    H288     H        0.53160    0.23640    0.33140    1.000
    H289     H        0.40500    0.20020    0.16860    1.000
    H290     H        0.48360    0.34180    0.30020    1.000
    H291     H        0.54070    0.44230    0.38180    1.000
    H292     H        0.62880    0.29870    0.06950    1.000
    H293     H        0.64230    0.34740    0.31630    1.000
    H294     H        0.55290    0.30320    0.10530    1.000
    C385     C        0.38550    0.13550    0.25000    1.000
    C386     C        0.55360    0.15840    0.01260    1.000
    C387     C        0.37100    0.14710    0.20270    1.000
    C388     C        0.28680    0.03750    0.19970    1.000
    C389     C        0.53330    0.25710    0.20000    1.000
    C390     C        0.61330    0.22260    0.99630    1.000
    C391     C        0.33780    0.08710    0.30030    1.000
    C392     C        0.55480    0.19270    0.13210    1.000
    C393     C        0.49110    0.21410    0.29860    1.000
    C394     C        0.54300    0.20690    0.18030    1.000
    C395     C        0.62530    0.45440    0.39630    1.000
    C396     C        0.72630    0.61700    0.50370    1.000
    C397     C        0.60960    0.25600    0.04620    1.000
    C398     C        0.52660    0.36270    0.31970    1.000
    C399     C        0.53730    0.29250    0.17080    1.000
    C400     C        0.64580    0.54100    0.48740    1.000
    C401     C        0.47550    0.22550    0.25000    1.000
    C402     C        0.54990    0.27880    0.12370    1.000
    C403     C        0.41550    0.19250    0.20140    1.000
    C404     C        0.28650    0.03480    0.27970    1.000
    C405     C        0.55810    0.22900    0.10370    1.000
    C406     C        0.62170    0.36650    0.32920    1.000
    C407     C        0.25510    0.00680    0.22030    1.000
    C408     C        0.70980    0.56340    0.45380    1.000
    C409     C        0.56060    0.42270    0.36790    1.000
    C410     C        0.55710    0.33330    0.30000    1.000
    C411     C        0.65510    0.42620    0.37630    1.000
    C412     C        0.44440    0.16830    0.29730    1.000
    N93      N        0.57260    0.21410    0.05430    1.000
    N94      N        0.33810    0.08810    0.25000    1.000
    N95      N        0.68580    0.60070    0.52430    1.000
    N96      N        0.57640    0.16150    0.97570    1.000
    N97      N        0.65980    0.51830    0.44570    1.000
    N98      N        0.52250    0.27250    0.25000    1.000
    H295     H        0.66960    0.79390    0.33990    1.000
    H296     H        0.45930    0.90160    0.34110    1.000
    H297     H        0.46840    0.70480    0.29980    1.000
    H298     H        0.35770    0.70510    0.17400    1.000
    H299     H        0.27080    0.83010    0.20130    1.000
    H300     H        0.59500    0.79520    0.26360    1.000
    H301     H        0.36370    0.60220    0.84350    1.000
    H302     H        0.38730    0.90590    0.37780    1.000
    H303     H        0.43950    0.59840    0.05770    1.000
    H304     H        0.44710    0.75030    0.05240    1.000
    H305     H        0.30210    0.74970    0.19680    1.000
    H306     H        0.37120    0.66990    0.94070    1.000
    H307     H        0.54600    0.70610    0.37570    1.000
    H308     H        0.51640    0.85820    0.31660    1.000
    H309     H        0.46890    0.79490    0.15260    1.000
    H310     H        0.47190    0.59410    0.98140    1.000
    H311     H        0.24130    0.89780    0.26150    1.000
    H312     H        0.45840    0.64180    0.15820    1.000
    C413     C        0.46270    0.75520    0.13350    1.000
    C414     C        0.61450    0.75000    0.36450    1.000
    C415     C        0.45700    0.66390    0.13730    1.000
    C416     C        0.66220    0.74930    0.46250    1.000
    C417     C        0.52450    0.75000    0.27450    1.000
    C418     C        0.37470    0.82910    0.27100    1.000
    C419     C        0.44640    0.60480    0.95900    1.000
    C420     C        0.71350    0.74830    0.49320    1.000
    C421     C        0.39040    0.64640    0.93660    1.000
    C422     C        0.34490    0.77110    0.22120    1.000
    C423     C        0.58450    0.77700    0.28590    1.000
    C424     C        0.35420    0.89520    0.34160    1.000
    C425     C        0.29020    0.85360    0.24400    1.000
    C426     C        0.47340    0.83610    0.29310    1.000
    C427     C        0.44520    0.63790    0.07730    1.000
    C428     C        0.62900    0.77610    0.33170    1.000
    C429     C        0.44190    0.67090    0.04560    1.000
    C430     C        0.50890    0.72300    0.30750    1.000
    C431     C        0.55560    0.72390    0.35290    1.000
    C432     C        0.27370    0.89070    0.27740    1.000
    C433     C        0.46670    0.72380    0.16670    1.000
    C434     C        0.45010    0.72890    0.07380    1.000
    C435     C        0.71320    0.75070    0.41290    1.000
    C436     C        0.43940    0.86210    0.30730    1.000
    C437     C        0.38670    0.60930    0.88300    1.000
    C438     C        0.44290    0.77620    0.24290    1.000
    C439     C        0.74490    0.75170    0.46520    1.000
    C440     C        0.37830    0.74480    0.20750    1.000
    N99      N        0.66190    0.75000    0.41190    1.000
    N100     N        0.34020    0.85850    0.28590    1.000
    N101     N        0.31420    0.91490    0.33850    1.000
    N102     N        0.47750    0.75000    0.22750    1.000
    N103     N        0.42740    0.64150    0.98170    1.000
    N104     N        0.42360    0.58510    0.89930    1.000
    H313     H        0.44070    0.37120    0.16990    1.000
    H314     H        0.79980    0.46840    0.20480    1.000
    H315     H        0.87780    0.38730    0.40590    1.000
    H316     H        0.70130    0.27080    0.33010    1.000
    H317     H        0.34350    0.36370    0.10220    1.000
    H318     H        0.55770    0.43950    0.09840    1.000
    H319     H        0.67400    0.35770    0.20510    1.000
    H320     H        0.84110    0.45930    0.40160    1.000
    H321     H        0.65820    0.45840    0.14180    1.000
    H322     H        0.76150    0.24130    0.39780    1.000
    H323     H        0.48140    0.47190    0.09410    1.000
    H324     H        0.55240    0.44710    0.25030    1.000
    H325     H        0.65260    0.46890    0.29490    1.000
    H326     H        0.83990    0.66960    0.29390    1.000
    H327     H        0.69680    0.30210    0.24970    1.000
    H328     H        0.87570    0.54600    0.20610    1.000
    H329     H        0.76360    0.59500    0.29520    1.000
    H330     H        0.81660    0.51640    0.35820    1.000
    C441     C        0.83170    0.62900    0.27610    1.000
    C442     C        0.77100    0.37470    0.32910    1.000
    C443     C        0.63730    0.45700    0.16390    1.000
    C444     C        0.84160    0.35420    0.39520    1.000
    C445     C        0.74290    0.44290    0.27620    1.000
    C446     C        0.80750    0.50890    0.22300    1.000
    C447     C        0.96250    0.66220    0.24930    1.000
    C448     C        0.91290    0.71320    0.25070    1.000
    C449     C        0.74400    0.29020    0.35360    1.000
    C450     C        0.77450    0.52450    0.25000    1.000
    C451     C        0.99320    0.71350    0.24830    1.000
    C452     C        0.66670    0.46670    0.22380    1.000
    C453     C        0.54560    0.44190    0.17090    1.000
    C454     C        0.80730    0.43940    0.36210    1.000
    C455     C        0.57380    0.45010    0.22890    1.000
    C456     C        0.70750    0.37830    0.24480    1.000
    C457     C        0.72120    0.34490    0.27110    1.000
    C458     C        0.96520    0.74490    0.25170    1.000
    C459     C        0.85290    0.55560    0.22390    1.000
    C460     C        0.63350    0.46270    0.25520    1.000
    C461     C        0.78590    0.58450    0.27700    1.000
    C462     C        0.79310    0.47340    0.33610    1.000
    C463     C        0.77740    0.27370    0.39070    1.000
    C464     C        0.45900    0.44640    0.10480    1.000
    C465     C        0.86450    0.61450    0.25000    1.000
    C466     C        0.43660    0.39040    0.14640    1.000
    C467     C        0.38300    0.38670    0.10930    1.000
    C468     C        0.57730    0.44520    0.13790    1.000
    N105     N        0.72750    0.47750    0.25000    1.000
    N106     N        0.83850    0.31420    0.41490    1.000
    N107     N        0.39930    0.42360    0.08510    1.000
    N108     N        0.91190    0.66190    0.25000    1.000
    N109     N        0.78590    0.34020    0.35850    1.000
    N110     N        0.48170    0.42740    0.14150    1.000
    H331     H        0.66860    0.40500    0.70020    1.000
    H332     H        0.50950    0.52810    0.62220    1.000
    H333     H        0.69980    0.54160    0.68340    1.000
    H334     H        0.61820    0.56050    0.65890    1.000
    H335     H        0.88180    0.54070    0.94230    1.000
    H336     H        0.83140    0.53160    0.73640    1.000
    H337     H        0.02020    0.75870    0.15650    1.000
    H338     H        0.93050    0.72920    0.05930    1.000
    H339     H        0.47980    0.63630    0.73850    1.000
    H340     H        0.99050    0.61270    0.01860    1.000
    H341     H        0.89470    0.69790    0.94760    1.000
    H342     H        0.80020    0.48360    0.84180    1.000
    H343     H        0.67030    0.33040    0.62430    1.000
    H344     H        0.60530    0.55290    0.80320    1.000
    H345     H        0.81630    0.64230    0.84740    1.000
    H346     H        0.56950    0.62880    0.79870    1.000
    H347     H        0.68370    0.53110    0.82600    1.000
    H348     H        0.82970    0.45400    0.66010    1.000
    C469     C        0.95380    0.70980    0.06340    1.000
    C470     C        0.80030    0.33780    0.58710    1.000
    C471     C        0.62370    0.54990    0.77880    1.000
    C472     C        0.77970    0.28650    0.53480    1.000
    C473     C        0.75000    0.47550    0.72550    1.000
    C474     C        0.98740    0.64580    0.04100    1.000
    C475     C        0.70140    0.41550    0.69250    1.000
    C476     C        0.86790    0.56060    0.92270    1.000
    C477     C        0.68030    0.54300    0.70690    1.000
    C478     C        0.79860    0.49110    0.71410    1.000
    C479     C        0.69970    0.28680    0.53750    1.000
    C480     C        0.75000    0.38550    0.63550    1.000
    C481     C        0.80000    0.55710    0.83330    1.000
    C482     C        0.89630    0.62530    0.95440    1.000
    C483     C        0.79730    0.44440    0.66830    1.000
    C484     C        0.87630    0.65510    0.92620    1.000
    C485     C        0.72030    0.25510    0.50680    1.000
    C486     C        0.60370    0.55810    0.72900    1.000
    C487     C        0.70270    0.37100    0.64710    1.000
    C488     C        0.81970    0.52660    0.86270    1.000
    C489     C        0.82920    0.62170    0.86650    1.000
    C490     C        0.49630    0.61330    0.72260    1.000
    C491     C        0.67080    0.53730    0.79250    1.000
    C492     C        0.63210    0.55480    0.69270    1.000
    C493     C        0.51260    0.55360    0.65840    1.000
    C494     C        0.54620    0.60960    0.75600    1.000
    C495     C        0.00370    0.72630    0.11700    1.000
    C496     C        0.70000    0.53330    0.75710    1.000
    N111     N        0.02430    0.68580    0.10070    1.000
    N112     N        0.75000    0.52250    0.77250    1.000
    N113     N        0.55430    0.57260    0.71410    1.000
    N114     N        0.75000    0.33810    0.58810    1.000
    N115     N        0.47570    0.57640    0.66150    1.000
    N116     N        0.94570    0.65980    0.01830    1.000
    H349     H        0.85770    0.17400    0.70510    1.000
    H350     H        0.86370    0.84350    0.60220    1.000
    H351     H        0.96840    0.29980    0.70480    1.000
    H352     H        0.01640    0.31660    0.85820    1.000
    H353     H        0.16960    0.33990    0.79390    1.000
    H354     H        0.94710    0.05240    0.75030    1.000
    H355     H        0.09500    0.26360    0.79520    1.000
    H356     H        0.04600    0.37570    0.70610    1.000
    H357     H        0.74130    0.26150    0.89780    1.000
    H358     H        0.96890    0.15260    0.79490    1.000
    H359     H        0.77080    0.20130    0.83010    1.000
    H360     H        0.93950    0.05770    0.59840    1.000
    H361     H        0.97190    0.98140    0.59410    1.000
    H362     H        0.87120    0.94070    0.66990    1.000
    H363     H        0.80210    0.19680    0.74970    1.000
    H364     H        0.95930    0.34110    0.90160    1.000
    H365     H        0.88730    0.37780    0.90590    1.000
    H366     H        0.95840    0.15820    0.64180    1.000
    C497     C        0.24490    0.46520    0.75170    1.000
    C498     C        0.95700    0.13730    0.66390    1.000
    C499     C        0.94190    0.04560    0.67090    1.000
    C500     C        0.02450    0.27450    0.75000    1.000
    C501     C        0.11450    0.36450    0.75000    1.000
    C502     C        0.08450    0.28590    0.77700    1.000
    C503     C        0.84490    0.22120    0.77110    1.000
    C504     C        0.85420    0.34160    0.89520    1.000
    C505     C        0.16220    0.46250    0.74930    1.000
    C506     C        0.12900    0.33170    0.77610    1.000
    C507     C        0.05560    0.35290    0.72390    1.000
    C508     C        0.96270    0.13350    0.75520    1.000
    C509     C        0.21350    0.49320    0.74830    1.000
    C510     C        0.96670    0.16670    0.72380    1.000
    C511     C        0.21320    0.41290    0.75070    1.000
    C512     C        0.93940    0.30730    0.86210    1.000
    C513     C        0.88670    0.88300    0.60930    1.000
    C514     C        0.87470    0.27100    0.82910    1.000
    C515     C        0.97340    0.29310    0.83610    1.000
    C516     C        0.94290    0.24290    0.77620    1.000
    C517     C        0.79020    0.24400    0.85360    1.000
    C518     C        0.89040    0.93660    0.64640    1.000
    C519     C        0.95010    0.07380    0.72890    1.000
    C520     C        0.94640    0.95900    0.60480    1.000
    C521     C        0.00890    0.30750    0.72300    1.000
    C522     C        0.87830    0.20750    0.74480    1.000
    C523     C        0.77370    0.27740    0.89070    1.000
    C524     C        0.94520    0.07730    0.63790    1.000
    N117     N        0.16190    0.41190    0.75000    1.000
    N118     N        0.97750    0.22750    0.75000    1.000
    N119     N        0.92740    0.98170    0.64150    1.000
    N120     N        0.81420    0.33850    0.91490    1.000
    N121     N        0.84020    0.28590    0.85850    1.000
    N122     N        0.92360    0.89930    0.58510    1.000
    H367     H        0.79490    0.65260    0.96890    1.000
    H368     H        0.89780    0.76150    0.74130    1.000
    H369     H        0.90160    0.84110    0.95930    1.000
    H370     H        0.70480    0.79980    0.96840    1.000
    H371     H        0.64180    0.65820    0.95840    1.000
    H372     H        0.60220    0.34350    0.86370    1.000
    H373     H        0.79390    0.83990    0.16960    1.000
    H374     H        0.66990    0.44070    0.87120    1.000
    H375     H        0.83010    0.70130    0.77080    1.000
    H376     H        0.90590    0.87780    0.88730    1.000
    H377     H        0.59410    0.48140    0.97190    1.000
    H378     H        0.74970    0.69680    0.80210    1.000
    H379     H        0.59840    0.55770    0.93950    1.000
    H380     H        0.70510    0.67400    0.85770    1.000
    H381     H        0.85820    0.81660    0.01640    1.000
    H382     H        0.70610    0.87570    0.04600    1.000
    H383     H        0.75030    0.55240    0.94710    1.000
    H384     H        0.79520    0.76360    0.09500    1.000
    C525     C        0.74480    0.70750    0.87830    1.000
    C526     C        0.64640    0.43660    0.89040    1.000
    C527     C        0.75000    0.86450    0.11450    1.000
    C528     C        0.77620    0.74290    0.94290    1.000
    C529     C        0.89520    0.84160    0.85420    1.000
    C530     C        0.89070    0.77740    0.77370    1.000
    C531     C        0.82910    0.77100    0.87470    1.000
    C532     C        0.75000    0.77450    0.02450    1.000
    C533     C        0.75520    0.63350    0.96270    1.000
    C534     C        0.75070    0.91290    0.21320    1.000
    C535     C        0.60480    0.45900    0.94640    1.000
    C536     C        0.72890    0.57380    0.95010    1.000
    C537     C        0.75170    0.96520    0.24490    1.000
    C538     C        0.60930    0.38300    0.88670    1.000
    C539     C        0.77610    0.83170    0.12900    1.000
    C540     C        0.77110    0.72120    0.84490    1.000
    C541     C        0.77700    0.78590    0.08450    1.000
    C542     C        0.66390    0.63730    0.95700    1.000
    C543     C        0.83610    0.79310    0.97340    1.000
    C544     C        0.85360    0.74400    0.79020    1.000
    C545     C        0.86210    0.80730    0.93940    1.000
    C546     C        0.74830    0.99320    0.21350    1.000
    C547     C        0.67090    0.54560    0.94190    1.000
    C548     C        0.72380    0.66670    0.96670    1.000
    C549     C        0.63790    0.57730    0.94520    1.000
    C550     C        0.72390    0.85290    0.05560    1.000
    C551     C        0.72300    0.80750    0.00890    1.000
    C552     C        0.74930    0.96250    0.16220    1.000
    N123     N        0.85850    0.78590    0.84020    1.000
    N124     N        0.91490    0.83850    0.81420    1.000
    N125     N        0.58510    0.39930    0.92360    1.000
    N126     N        0.75000    0.72750    0.97750    1.000
    N127     N        0.75000    0.91190    0.16190    1.000
    N128     N        0.64150    0.48170    0.92740    1.000
