# CIF file generated by openbabel 3.1.0, see https://openbabel.org
data_I
_chemical_name_common 'MEJQID_clean'
_cell_length_a 8.9082
_cell_length_b 10.5533
_cell_length_c 18.6627
_cell_angle_alpha 90
_cell_angle_beta 90
_cell_angle_gamma 90
_space_group_name_H-M_alt 'P 1'
_space_group_name_Hall 'P 1'
loop_
    _symmetry_equiv_pos_as_xyz
    x,y,z
loop_
    _atom_site_label
    _atom_site_type_symbol
    _atom_site_fract_x
    _atom_site_fract_y
    _atom_site_fract_z
    _atom_site_occupancy
    Zn1      Zn       0.87050    0.98471    0.39907    1.000
    Zn2      Zn       0.37050    0.01529    0.60093    1.000
    Zn3      Zn       0.87050    0.51529    0.89907    1.000
    Zn4      Zn       0.37050    0.48471    0.10093    1.000
    H1       H        0.17880    0.03760    0.47000    1.000
    H2       H        0.76080    0.64130    0.60040    1.000
    H3       H        0.15820    0.69810    0.72770    1.000
    H4       H        0.24990    0.79780    0.69190    1.000
    H5       H        0.02710    0.32390    0.28700    1.000
    H6       H        0.14980    0.46830    0.21320    1.000
    H7       H        0.40760    0.20720    0.13620    1.000
    H8       H        0.29560    0.05500    0.20830    1.000
    H9       H        0.67880    0.96240    0.53000    1.000
    H10      H        0.26080    0.35870    0.39960    1.000
    H11      H        0.65820    0.30190    0.27230    1.000
    H12      H        0.74990    0.20220    0.30810    1.000
    H13      H        0.52710    0.67610    0.71300    1.000
    H14      H        0.64980    0.53170    0.78680    1.000
    H15      H        0.90760    0.79280    0.86380    1.000
    H16      H        0.79560    0.94500    0.79170    1.000
    H17      H        0.17880    0.46240    0.97000    1.000
    H18      H        0.76080    0.85870    0.10040    1.000
    H19      H        0.15820    0.80190    0.22770    1.000
    H20      H        0.24990    0.70220    0.19190    1.000
    H21      H        0.02710    0.17610    0.78700    1.000
    H22      H        0.14980    0.03170    0.71320    1.000
    H23      H        0.40760    0.29280    0.63620    1.000
    H24      H        0.29560    0.44500    0.70830    1.000
    H25      H        0.67880    0.53760    0.03000    1.000
    H26      H        0.26080    0.14130    0.89960    1.000
    H27      H        0.65820    0.19810    0.77230    1.000
    H28      H        0.74990    0.29780    0.80810    1.000
    H29      H        0.52710    0.82390    0.21300    1.000
    H30      H        0.64980    0.96830    0.28680    1.000
    H31      H        0.90760    0.70720    0.36380    1.000
    H32      H        0.79560    0.55500    0.29170    1.000
    C1       C        0.13030    0.97650    0.49740    1.000
    C2       C        0.84360    0.69410    0.59480    1.000
    C3       C        0.06520    0.76090    0.64020    1.000
    C4       C        0.07960    0.84310    0.58120    1.000
    C5       C        0.96680    0.84020    0.53230    1.000
    C6       C        0.07760    0.07530    0.30430    1.000
    C7       C        0.10480    0.29800    0.25700    1.000
    C8       C        0.15430    0.17250    0.25600    1.000
    C9       C        0.17720    0.38330    0.21110    1.000
    C10      C        0.32870    0.23020    0.16620    1.000
    C11      C        0.26340    0.13880    0.21040    1.000
    C12      C        0.63030    0.02350    0.50260    1.000
    C13      C        0.34360    0.30590    0.40520    1.000
    C14      C        0.56520    0.23910    0.35980    1.000
    C15      C        0.57960    0.15690    0.41880    1.000
    C16      C        0.46680    0.15980    0.46770    1.000
    C17      C        0.57760    0.92470    0.69570    1.000
    C18      C        0.60480    0.70200    0.74300    1.000
    C19      C        0.65430    0.82750    0.74400    1.000
    C20      C        0.67720    0.61670    0.78890    1.000
    C21      C        0.82870    0.76980    0.83380    1.000
    C22      C        0.76340    0.86120    0.78960    1.000
    C23      C        0.13030    0.52350    0.99740    1.000
    C24      C        0.84360    0.80590    0.09480    1.000
    C25      C        0.06520    0.73910    0.14020    1.000
    C26      C        0.07960    0.65690    0.08120    1.000
    C27      C        0.96680    0.65980    0.03230    1.000
    C28      C        0.07760    0.42470    0.80430    1.000
    C29      C        0.10480    0.20200    0.75700    1.000
    C30      C        0.15430    0.32750    0.75600    1.000
    C31      C        0.17720    0.11670    0.71110    1.000
    C32      C        0.32870    0.26980    0.66620    1.000
    C33      C        0.26340    0.36120    0.71040    1.000
    C34      C        0.63030    0.47650    0.00260    1.000
    C35      C        0.34360    0.19410    0.90520    1.000
    C36      C        0.56520    0.26090    0.85980    1.000
    C37      C        0.57960    0.34310    0.91880    1.000
    C38      C        0.46680    0.34020    0.96770    1.000
    C39      C        0.57760    0.57530    0.19570    1.000
    C40      C        0.60480    0.79800    0.24300    1.000
    C41      C        0.65430    0.67250    0.24400    1.000
    C42      C        0.67720    0.88330    0.28890    1.000
    C43      C        0.82870    0.73020    0.33380    1.000
    C44      C        0.76340    0.63880    0.28960    1.000
    N1       N        0.99610    0.92510    0.47820    1.000
    N2       N        0.84330    0.76880    0.53610    1.000
    N3       N        0.18730    0.93160    0.55930    1.000
    N4       N        0.94410    0.68720    0.64380    1.000
    N5       N        0.17090    0.75100    0.69320    1.000
    N6       N        0.28000    0.35030    0.16590    1.000
    N7       N        0.49610    0.07490    0.52180    1.000
    N8       N        0.34330    0.23120    0.46390    1.000
    N9       N        0.68730    0.06840    0.44070    1.000
    N10      N        0.44410    0.31280    0.35620    1.000
    N11      N        0.67090    0.24900    0.30680    1.000
    N12      N        0.78000    0.64970    0.83410    1.000
    N13      N        0.99610    0.57490    0.97820    1.000
    N14      N        0.84330    0.73120    0.03610    1.000
    N15      N        0.18730    0.56840    0.05930    1.000
    N16      N        0.94410    0.81280    0.14380    1.000
    N17      N        0.17090    0.74900    0.19320    1.000
    N18      N        0.28000    0.14970    0.66590    1.000
    N19      N        0.49610    0.42510    0.02180    1.000
    N20      N        0.34330    0.26880    0.96390    1.000
    N21      N        0.68730    0.43160    0.94070    1.000
    N22      N        0.44410    0.18720    0.85620    1.000
    N23      N        0.67090    0.25100    0.80680    1.000
    N24      N        0.78000    0.85030    0.33410    1.000
    O1       O        0.96320    0.11520    0.33870    1.000
    O2       O        0.12710    0.96680    0.30600    1.000
    O3       O        0.46320    0.88480    0.66130    1.000
    O4       O        0.62710    0.03320    0.69400    1.000
    O5       O        0.96320    0.38480    0.83870    1.000
    O6       O        0.12710    0.53320    0.80600    1.000
    O7       O        0.46320    0.61520    0.16130    1.000
    O8       O        0.62710    0.46680    0.19400    1.000
