# CIF file generated by openbabel 3.1.0, see https://openbabel.org
data_I
_chemical_name_common 'image0'
_cell_length_a 10.8637
_cell_length_b 6.3883
_cell_length_c 16.963
_cell_angle_alpha 90
_cell_angle_beta 105.757
_cell_angle_gamma 90
_space_group_name_H-M_alt 'P 1'
_space_group_name_Hall 'P 1'
loop_
    _symmetry_equiv_pos_as_xyz
    x,y,z
loop_
    _atom_site_label
    _atom_site_type_symbol
    _atom_site_fract_x
    _atom_site_fract_y
    _atom_site_fract_z
    _atom_site_occupancy
    Co1      Co       0.53459    0.00311    0.91606    1.000
    C1       C        0.66860    0.18300    0.66360    1.000
    C2       C        0.77680    0.12030    0.73570    1.000
    C3       C        0.83410    0.92320    0.73910    1.000
    H1       H        0.80340    0.82780    0.69690    1.000
    C4       C        0.93540    0.86920    0.80420    1.000
    H2       H        0.97400    0.73900    0.80490    1.000
    C5       C        0.98050    0.00690    0.86880    1.000
    H3       H        0.05000    0.97030    0.91230    1.000
    C6       C        0.92200    0.19740    0.86830    1.000
    C7       C        0.82180    0.25570    0.80080    1.000
    H4       H        0.78490    0.38740    0.79980    1.000
    C8       C        0.08580    0.43020    0.95990    1.000
    H5       H        0.14500    0.38270    0.93330    1.000
    C9       C        0.96340    0.34600    0.93820    1.000
    C10      C        0.87700    0.41650    0.97990    1.000
    C11      C        0.74280    0.33010    0.96430    1.000
    O1       O        0.61440    0.03930    0.61852    1.000
    O2       O        0.63910    0.37420    0.65413    1.000
    O3       O        0.72430    0.13680    0.96606    1.000
    O4       O        0.65600    0.46600    0.95189    1.000
    O5       O        0.44440    0.19020    0.98306    1.000
    H6       H        0.36530    0.19020    0.95770    1.000
    Co2      Co       0.46541    0.50311    0.58394    1.000
    C12      C        0.33140    0.68300    0.83640    1.000
    C13      C        0.22320    0.62030    0.76430    1.000
    C14      C        0.16590    0.42320    0.76090    1.000
    H7       H        0.19660    0.32780    0.80310    1.000
    C15      C        0.06460    0.36920    0.69580    1.000
    H8       H        0.02600    0.23900    0.69510    1.000
    C16      C        0.01950    0.50690    0.63120    1.000
    H9       H        0.95000    0.47030    0.58770    1.000
    C17      C        0.07800    0.69740    0.63170    1.000
    C18      C        0.17820    0.75570    0.69920    1.000
    H10      H        0.21510    0.88740    0.70020    1.000
    C19      C        0.91420    0.93020    0.54010    1.000
    H11      H        0.85500    0.88270    0.56670    1.000
    C20      C        0.03660    0.84600    0.56180    1.000
    C21      C        0.12300    0.91650    0.52010    1.000
    C22      C        0.25720    0.83010    0.53570    1.000
    O6       O        0.38560    0.53930    0.88148    1.000
    O7       O        0.36090    0.87420    0.84587    1.000
    O8       O        0.27570    0.63680    0.53394    1.000
    O9       O        0.34400    0.96600    0.54811    1.000
    O10      O        0.55560    0.69020    0.51694    1.000
    H12      H        0.63470    0.69020    0.54230    1.000
    Co3      Co       0.46541    0.99689    0.08394    1.000
    C23      C        0.33140    0.81700    0.33640    1.000
    C24      C        0.22320    0.87970    0.26430    1.000
    C25      C        0.16590    0.07680    0.26090    1.000
    H13      H        0.19660    0.17220    0.30310    1.000
    C26      C        0.06460    0.13080    0.19580    1.000
    H14      H        0.02600    0.26100    0.19510    1.000
    C27      C        0.01950    0.99310    0.13120    1.000
    H15      H        0.95000    0.02970    0.08770    1.000
    C28      C        0.07800    0.80260    0.13170    1.000
    C29      C        0.17820    0.74430    0.19920    1.000
    H16      H        0.21510    0.61260    0.20020    1.000
    C30      C        0.91420    0.56980    0.04010    1.000
    H17      H        0.85500    0.61730    0.06670    1.000
    C31      C        0.03660    0.65400    0.06180    1.000
    C32      C        0.12300    0.58350    0.02010    1.000
    C33      C        0.25720    0.66990    0.03570    1.000
    O11      O        0.38560    0.96070    0.38148    1.000
    O12      O        0.36090    0.62580    0.34587    1.000
    O13      O        0.27570    0.86320    0.03394    1.000
    O14      O        0.34400    0.53400    0.04811    1.000
    O15      O        0.55560    0.80980    0.01694    1.000
    H18      H        0.63470    0.80980    0.04230    1.000
    Co4      Co       0.53459    0.49689    0.41606    1.000
    C34      C        0.66860    0.31700    0.16360    1.000
    C35      C        0.77680    0.37970    0.23570    1.000
    C36      C        0.83410    0.57680    0.23910    1.000
    H19      H        0.80340    0.67220    0.19690    1.000
    C37      C        0.93540    0.63080    0.30420    1.000
    H20      H        0.97400    0.76100    0.30490    1.000
    C38      C        0.98050    0.49310    0.36880    1.000
    H21      H        0.05000    0.52970    0.41230    1.000
    C39      C        0.92200    0.30260    0.36830    1.000
    C40      C        0.82180    0.24430    0.30080    1.000
    H22      H        0.78490    0.11260    0.29980    1.000
    C41      C        0.08580    0.06980    0.45990    1.000
    H23      H        0.14500    0.11730    0.43330    1.000
    C42      C        0.96340    0.15400    0.43820    1.000
    C43      C        0.87700    0.08350    0.47990    1.000
    C44      C        0.74280    0.16990    0.46430    1.000
    O16      O        0.61440    0.46070    0.11852    1.000
    O17      O        0.63910    0.12580    0.15413    1.000
    O18      O        0.72430    0.36320    0.46606    1.000
    O19      O        0.65600    0.03400    0.45189    1.000
    O20      O        0.44440    0.30980    0.48306    1.000
    H24      H        0.36530    0.30980    0.45770    1.000
    Co5      Co       0.50000    0.50000    0.00000    1.000
    Co6      Co       0.50000    0.00000    0.50000    1.000
