# CIF file generated by openbabel 3.1.0, see https://openbabel.org
data_I
_chemical_name_common 'image0'
_cell_length_a 27.8885
_cell_length_b 11.4437
_cell_length_c 17.7204
_cell_angle_alpha 90
_cell_angle_beta 90
_cell_angle_gamma 90
_space_group_name_H-M_alt 'P 1'
_space_group_name_Hall 'P 1'
loop_
    _symmetry_equiv_pos_as_xyz
    x,y,z
loop_
    _atom_site_label
    _atom_site_type_symbol
    _atom_site_fract_x
    _atom_site_fract_y
    _atom_site_fract_z
    _atom_site_occupancy
    Eu1      Eu       0.06808    0.18380    0.22246    1.000
    O1       O        0.12485    0.30200    0.14970    1.000
    O2       O        0.13729    0.30410    0.27210    1.000
    O3       O        0.35122    0.53460    0.08530    1.000
    O4       O        0.36188    0.56170    0.20760    1.000
    O5       O        0.19460    0.33900    0.05850    1.000
    H1       H        0.16830    0.31370    0.07120    1.000
    O6       O        0.28960    0.53500    0.30080    1.000
    H2       H        0.31840    0.54460    0.29370    1.000
    O7       O        0.08154    0.11670    0.35680    1.000
    O8       O        0.01064    0.18680    0.32865    1.000
    O9       O        0.93496    0.11510    0.40850    1.000
    H3       H        0.90860    0.08420    0.41330    1.000
    O10      O        0.03799    0.98590    0.23000    1.000
    O11      O        0.03803    0.37900    0.23060    1.000
    O12      O        0.08010    0.79260    0.19390    1.000
    H4       H        0.07840    0.86390    0.19740    1.000
    C1       C        0.15030    0.32930    0.20630    1.000
    C2       C        0.19790    0.38550    0.19230    1.000
    C3       C        0.21640    0.39270    0.12000    1.000
    C4       C        0.26150    0.43910    0.10800    1.000
    H5       H        0.27370    0.44300    0.05920    1.000
    C5       C        0.28870    0.47980    0.16790    1.000
    C6       C        0.26990    0.47340    0.24010    1.000
    C7       C        0.22510    0.42630    0.25200    1.000
    H6       H        0.21290    0.42190    0.30080    1.000
    C8       C        0.33750    0.52800    0.15150    1.000
    C9       C        0.03764    0.12510    0.37180    1.000
    C10      C        0.01653    0.06350    0.43760    1.000
    C11      C        0.96757    0.05830    0.45290    1.000
    C12      C        0.95228    0.99590    0.51450    1.000
    H7       H        0.91960    0.99310    0.52470    1.000
    C13      C        0.03860    0.74310    0.22150    1.000
    C14      C        0.03920    0.62160    0.22190    1.000
    H8       H        0.06640    0.57940    0.20280    1.000
    O13      O        0.18780    0.37800    0.05640    1.000
    H9       H        0.16180    0.35110    0.06890    1.000
    O14      O        0.30020    0.48300    0.30290    1.000
    H10      H        0.32660    0.50590    0.28930    1.000
    O15      O        0.07910    0.56960    0.19270    1.000
    H11      H        0.07670    0.49840    0.19670    1.000
    H12      H        0.06550    0.78520    0.20140    1.000
    Eu2      Eu       0.43192    0.31620    0.72246    1.000
    O16      O        0.37515    0.19800    0.64970    1.000
    O17      O        0.36271    0.19590    0.77210    1.000
    O18      O        0.14878    0.96540    0.58530    1.000
    O19      O        0.13812    0.93830    0.70760    1.000
    O20      O        0.30540    0.16100    0.55850    1.000
    H13      H        0.33170    0.18630    0.57120    1.000
    O21      O        0.21040    0.96500    0.80080    1.000
    H14      H        0.18160    0.95540    0.79370    1.000
    O22      O        0.41846    0.38330    0.85680    1.000
    O23      O        0.48936    0.31320    0.82865    1.000
    O24      O        0.56504    0.38490    0.90850    1.000
    H15      H        0.59140    0.41580    0.91330    1.000
    O25      O        0.46201    0.51410    0.73000    1.000
    O26      O        0.46197    0.12100    0.73060    1.000
    O27      O        0.41990    0.70740    0.69390    1.000
    H16      H        0.42160    0.63610    0.69740    1.000
    C15      C        0.34970    0.17070    0.70630    1.000
    C16      C        0.30210    0.11450    0.69230    1.000
    C17      C        0.28360    0.10730    0.62000    1.000
    C18      C        0.23850    0.06090    0.60800    1.000
    H17      H        0.22630    0.05700    0.55920    1.000
    C19      C        0.21130    0.02020    0.66790    1.000
    C20      C        0.23010    0.02660    0.74010    1.000
    C21      C        0.27490    0.07370    0.75200    1.000
    H18      H        0.28710    0.07810    0.80080    1.000
    C22      C        0.16250    0.97200    0.65150    1.000
    C23      C        0.46236    0.37490    0.87180    1.000
    C24      C        0.48347    0.43650    0.93760    1.000
    C25      C        0.53243    0.44170    0.95290    1.000
    C26      C        0.54772    0.50410    0.01450    1.000
    H19      H        0.58040    0.50690    0.02470    1.000
    C27      C        0.46140    0.75690    0.72150    1.000
    C28      C        0.46080    0.87840    0.72190    1.000
    H20      H        0.43360    0.92060    0.70280    1.000
    O28      O        0.31220    0.12200    0.55640    1.000
    H21      H        0.33820    0.14890    0.56890    1.000
    O29      O        0.19980    0.01700    0.80290    1.000
    H22      H        0.17340    0.99410    0.78930    1.000
    O30      O        0.42090    0.93040    0.69270    1.000
    H23      H        0.42330    0.00160    0.69670    1.000
    H24      H        0.43450    0.71480    0.70140    1.000
    Eu3      Eu       0.93192    0.18380    0.27754    1.000
    O31      O        0.87515    0.30200    0.35030    1.000
    O32      O        0.86271    0.30410    0.22790    1.000
    O33      O        0.64878    0.53460    0.41470    1.000
    O34      O        0.63812    0.56170    0.29240    1.000
    O35      O        0.80540    0.33900    0.44150    1.000
    H25      H        0.83170    0.31370    0.42880    1.000
    O36      O        0.71040    0.53500    0.19920    1.000
    H26      H        0.68160    0.54460    0.20630    1.000
    O37      O        0.91846    0.11670    0.14320    1.000
    O38      O        0.98936    0.18680    0.17135    1.000
    O39      O        0.06504    0.11510    0.09150    1.000
    H27      H        0.09140    0.08420    0.08670    1.000
    O40      O        0.96201    0.98590    0.27000    1.000
    O41      O        0.96197    0.37900    0.26940    1.000
    O42      O        0.91990    0.79260    0.30610    1.000
    H28      H        0.92160    0.86390    0.30260    1.000
    C29      C        0.84970    0.32930    0.29370    1.000
    C30      C        0.80210    0.38550    0.30770    1.000
    C31      C        0.78360    0.39270    0.38000    1.000
    C32      C        0.73850    0.43910    0.39200    1.000
    H29      H        0.72630    0.44300    0.44080    1.000
    C33      C        0.71130    0.47980    0.33210    1.000
    C34      C        0.73010    0.47340    0.25990    1.000
    C35      C        0.77490    0.42630    0.24800    1.000
    H30      H        0.78710    0.42190    0.19920    1.000
    C36      C        0.66250    0.52800    0.34850    1.000
    C37      C        0.96236    0.12510    0.12820    1.000
    C38      C        0.98347    0.06350    0.06240    1.000
    C39      C        0.03243    0.05830    0.04710    1.000
    C40      C        0.04772    0.99590    0.98550    1.000
    H31      H        0.08040    0.99310    0.97530    1.000
    C41      C        0.96140    0.74310    0.27850    1.000
    C42      C        0.96080    0.62160    0.27810    1.000
    H32      H        0.93360    0.57940    0.29720    1.000
    O43      O        0.81220    0.37800    0.44360    1.000
    H33      H        0.83820    0.35110    0.43110    1.000
    O44      O        0.69980    0.48300    0.19710    1.000
    H34      H        0.67340    0.50590    0.21070    1.000
    O45      O        0.92090    0.56960    0.30730    1.000
    H35      H        0.92330    0.49840    0.30330    1.000
    H36      H        0.93450    0.78520    0.29860    1.000
    Eu4      Eu       0.56808    0.31620    0.77754    1.000
    O46      O        0.62485    0.19800    0.85030    1.000
    O47      O        0.63729    0.19590    0.72790    1.000
    O48      O        0.85122    0.96540    0.91470    1.000
    O49      O        0.86188    0.93830    0.79240    1.000
    O50      O        0.69460    0.16100    0.94150    1.000
    H37      H        0.66830    0.18630    0.92880    1.000
    O51      O        0.78960    0.96500    0.69920    1.000
    H38      H        0.81840    0.95540    0.70630    1.000
    O52      O        0.58154    0.38330    0.64320    1.000
    O53      O        0.51064    0.31320    0.67135    1.000
    O54      O        0.43496    0.38490    0.59150    1.000
    H39      H        0.40860    0.41580    0.58670    1.000
    O55      O        0.53799    0.51410    0.77000    1.000
    O56      O        0.53803    0.12100    0.76940    1.000
    O57      O        0.58010    0.70740    0.80610    1.000
    H40      H        0.57840    0.63610    0.80260    1.000
    C43      C        0.65030    0.17070    0.79370    1.000
    C44      C        0.69790    0.11450    0.80770    1.000
    C45      C        0.71640    0.10730    0.88000    1.000
    C46      C        0.76150    0.06090    0.89200    1.000
    H41      H        0.77370    0.05700    0.94080    1.000
    C47      C        0.78870    0.02020    0.83210    1.000
    C48      C        0.76990    0.02660    0.75990    1.000
    C49      C        0.72510    0.07370    0.74800    1.000
    H42      H        0.71290    0.07810    0.69920    1.000
    C50      C        0.83750    0.97200    0.84850    1.000
    C51      C        0.53764    0.37490    0.62820    1.000
    C52      C        0.51653    0.43650    0.56240    1.000
    C53      C        0.46757    0.44170    0.54710    1.000
    C54      C        0.45228    0.50410    0.48550    1.000
    H43      H        0.41960    0.50690    0.47530    1.000
    C55      C        0.53860    0.75690    0.77850    1.000
    C56      C        0.53920    0.87840    0.77810    1.000
    H44      H        0.56640    0.92060    0.79720    1.000
    O58      O        0.68780    0.12200    0.94360    1.000
    H45      H        0.66180    0.14890    0.93110    1.000
    O59      O        0.80020    0.01700    0.69710    1.000
    H46      H        0.82660    0.99410    0.71070    1.000
    O60      O        0.57910    0.93040    0.80730    1.000
    H47      H        0.57670    0.00160    0.80330    1.000
    H48      H        0.56550    0.71480    0.79860    1.000
    Eu5      Eu       0.93192    0.81620    0.77754    1.000
    O61      O        0.87515    0.69800    0.85030    1.000
    O62      O        0.86271    0.69590    0.72790    1.000
    O63      O        0.64878    0.46540    0.91470    1.000
    O64      O        0.63812    0.43830    0.79240    1.000
    O65      O        0.80540    0.66100    0.94150    1.000
    H49      H        0.83170    0.68630    0.92880    1.000
    O66      O        0.71040    0.46500    0.69920    1.000
    H50      H        0.68160    0.45540    0.70630    1.000
    O67      O        0.91846    0.88330    0.64320    1.000
    O68      O        0.98936    0.81320    0.67135    1.000
    O69      O        0.06504    0.88490    0.59150    1.000
    H51      H        0.09140    0.91580    0.58670    1.000
    O70      O        0.96201    0.01410    0.77000    1.000
    O71      O        0.96197    0.62100    0.76940    1.000
    O72      O        0.91990    0.20740    0.80610    1.000
    H52      H        0.92160    0.13610    0.80260    1.000
    C57      C        0.84970    0.67070    0.79370    1.000
    C58      C        0.80210    0.61450    0.80770    1.000
    C59      C        0.78360    0.60730    0.88000    1.000
    C60      C        0.73850    0.56090    0.89200    1.000
    H53      H        0.72630    0.55700    0.94080    1.000
    C61      C        0.71130    0.52020    0.83210    1.000
    C62      C        0.73010    0.52660    0.75990    1.000
    C63      C        0.77490    0.57370    0.74800    1.000
    H54      H        0.78710    0.57810    0.69920    1.000
    C64      C        0.66250    0.47200    0.84850    1.000
    C65      C        0.96236    0.87490    0.62820    1.000
    C66      C        0.98347    0.93650    0.56240    1.000
    C67      C        0.03243    0.94170    0.54710    1.000
    C68      C        0.04772    0.00410    0.48550    1.000
    H55      H        0.08040    0.00690    0.47530    1.000
    C69      C        0.96140    0.25690    0.77850    1.000
    C70      C        0.96080    0.37840    0.77810    1.000
    H56      H        0.93360    0.42060    0.79720    1.000
    O73      O        0.81220    0.62200    0.94360    1.000
    H57      H        0.83820    0.64890    0.93110    1.000
    O74      O        0.69980    0.51700    0.69710    1.000
    H58      H        0.67340    0.49410    0.71070    1.000
    O75      O        0.92090    0.43040    0.80730    1.000
    H59      H        0.92330    0.50160    0.80330    1.000
    H60      H        0.93450    0.21480    0.79860    1.000
    Eu6      Eu       0.56808    0.68380    0.27754    1.000
    O76      O        0.62485    0.80200    0.35030    1.000
    O77      O        0.63729    0.80410    0.22790    1.000
    O78      O        0.85122    0.03460    0.41470    1.000
    O79      O        0.86188    0.06170    0.29240    1.000
    O80      O        0.69460    0.83900    0.44150    1.000
    H61      H        0.66830    0.81370    0.42880    1.000
    O81      O        0.78960    0.03500    0.19920    1.000
    H62      H        0.81840    0.04460    0.20630    1.000
    O82      O        0.58154    0.61670    0.14320    1.000
    O83      O        0.51064    0.68680    0.17135    1.000
    O84      O        0.43496    0.61510    0.09150    1.000
    H63      H        0.40860    0.58420    0.08670    1.000
    O85      O        0.53799    0.48590    0.27000    1.000
    O86      O        0.53803    0.87900    0.26940    1.000
    O87      O        0.58010    0.29260    0.30610    1.000
    H64      H        0.57840    0.36390    0.30260    1.000
    C71      C        0.65030    0.82930    0.29370    1.000
    C72      C        0.69790    0.88550    0.30770    1.000
    C73      C        0.71640    0.89270    0.38000    1.000
    C74      C        0.76150    0.93910    0.39200    1.000
    H65      H        0.77370    0.94300    0.44080    1.000
    C75      C        0.78870    0.97980    0.33210    1.000
    C76      C        0.76990    0.97340    0.25990    1.000
    C77      C        0.72510    0.92630    0.24800    1.000
    H66      H        0.71290    0.92190    0.19920    1.000
    C78      C        0.83750    0.02800    0.34850    1.000
    C79      C        0.53764    0.62510    0.12820    1.000
    C80      C        0.51653    0.56350    0.06240    1.000
    C81      C        0.46757    0.55830    0.04710    1.000
    C82      C        0.45228    0.49590    0.98550    1.000
    H67      H        0.41960    0.49310    0.97530    1.000
    C83      C        0.53860    0.24310    0.27850    1.000
    C84      C        0.53920    0.12160    0.27810    1.000
    H68      H        0.56640    0.07940    0.29720    1.000
    O88      O        0.68780    0.87800    0.44360    1.000
    H69      H        0.66180    0.85110    0.43110    1.000
    O89      O        0.80020    0.98300    0.19710    1.000
    H70      H        0.82660    0.00590    0.21070    1.000
    O90      O        0.57910    0.06960    0.30730    1.000
    H71      H        0.57670    0.99840    0.30330    1.000
    H72      H        0.56550    0.28520    0.29860    1.000
    Eu7      Eu       0.06808    0.81620    0.72246    1.000
    O91      O        0.12485    0.69800    0.64970    1.000
    O92      O        0.13729    0.69590    0.77210    1.000
    O93      O        0.35122    0.46540    0.58530    1.000
    O94      O        0.36188    0.43830    0.70760    1.000
    O95      O        0.19460    0.66100    0.55850    1.000
    H73      H        0.16830    0.68630    0.57120    1.000
    O96      O        0.28960    0.46500    0.80080    1.000
    H74      H        0.31840    0.45540    0.79370    1.000
    O97      O        0.08154    0.88330    0.85680    1.000
    O98      O        0.01064    0.81320    0.82865    1.000
    O99      O        0.93496    0.88490    0.90850    1.000
    H75      H        0.90860    0.91580    0.91330    1.000
    O100     O        0.03799    0.01410    0.73000    1.000
    O101     O        0.03803    0.62100    0.73060    1.000
    O102     O        0.08010    0.20740    0.69390    1.000
    H76      H        0.07840    0.13610    0.69740    1.000
    C85      C        0.15030    0.67070    0.70630    1.000
    C86      C        0.19790    0.61450    0.69230    1.000
    C87      C        0.21640    0.60730    0.62000    1.000
    C88      C        0.26150    0.56090    0.60800    1.000
    H77      H        0.27370    0.55700    0.55920    1.000
    C89      C        0.28870    0.52020    0.66790    1.000
    C90      C        0.26990    0.52660    0.74010    1.000
    C91      C        0.22510    0.57370    0.75200    1.000
    H78      H        0.21290    0.57810    0.80080    1.000
    C92      C        0.33750    0.47200    0.65150    1.000
    C93      C        0.03764    0.87490    0.87180    1.000
    C94      C        0.01653    0.93650    0.93760    1.000
    C95      C        0.96757    0.94170    0.95290    1.000
    C96      C        0.95228    0.00410    0.01450    1.000
    H79      H        0.91960    0.00690    0.02470    1.000
    C97      C        0.03860    0.25690    0.72150    1.000
    C98      C        0.03920    0.37840    0.72190    1.000
    H80      H        0.06640    0.42060    0.70280    1.000
    O103     O        0.18780    0.62200    0.55640    1.000
    H81      H        0.16180    0.64890    0.56890    1.000
    O104     O        0.30020    0.51700    0.80290    1.000
    H82      H        0.32660    0.49410    0.78930    1.000
    O105     O        0.07910    0.43040    0.69270    1.000
    H83      H        0.07670    0.50160    0.69670    1.000
    H84      H        0.06550    0.21480    0.70140    1.000
    Eu8      Eu       0.43192    0.68380    0.22246    1.000
    O106     O        0.37515    0.80200    0.14970    1.000
    O107     O        0.36271    0.80410    0.27210    1.000
    O108     O        0.14878    0.03460    0.08530    1.000
    O109     O        0.13812    0.06170    0.20760    1.000
    O110     O        0.30540    0.83900    0.05850    1.000
    H85      H        0.33170    0.81370    0.07120    1.000
    O111     O        0.21040    0.03500    0.30080    1.000
    H86      H        0.18160    0.04460    0.29370    1.000
    O112     O        0.41846    0.61670    0.35680    1.000
    O113     O        0.48936    0.68680    0.32865    1.000
    O114     O        0.56504    0.61510    0.40850    1.000
    H87      H        0.59140    0.58420    0.41330    1.000
    O115     O        0.46201    0.48590    0.23000    1.000
    O116     O        0.46197    0.87900    0.23060    1.000
    O117     O        0.41990    0.29260    0.19390    1.000
    H88      H        0.42160    0.36390    0.19740    1.000
    C99      C        0.34970    0.82930    0.20630    1.000
    C100     C        0.30210    0.88550    0.19230    1.000
    C101     C        0.28360    0.89270    0.12000    1.000
    C102     C        0.23850    0.93910    0.10800    1.000
    H89      H        0.22630    0.94300    0.05920    1.000
    C103     C        0.21130    0.97980    0.16790    1.000
    C104     C        0.23010    0.97340    0.24010    1.000
    C105     C        0.27490    0.92630    0.25200    1.000
    H90      H        0.28710    0.92190    0.30080    1.000
    C106     C        0.16250    0.02800    0.15150    1.000
    C107     C        0.46236    0.62510    0.37180    1.000
    C108     C        0.48347    0.56350    0.43760    1.000
    C109     C        0.53243    0.55830    0.45290    1.000
    C110     C        0.54772    0.49590    0.51450    1.000
    H91      H        0.58040    0.49310    0.52470    1.000
    C111     C        0.46140    0.24310    0.22150    1.000
    C112     C        0.46080    0.12160    0.22190    1.000
    H92      H        0.43360    0.07940    0.20280    1.000
    O118     O        0.31220    0.87800    0.05640    1.000
    H93      H        0.33820    0.85110    0.06890    1.000
    O119     O        0.19980    0.98300    0.30290    1.000
    H94      H        0.17340    0.00590    0.28930    1.000
    O120     O        0.42090    0.06960    0.19270    1.000
    H95      H        0.42330    0.99840    0.19670    1.000
    H96      H        0.43450    0.28520    0.20140    1.000
    C113     C        0.00000    0.93590    0.25000    1.000
    C114     C        0.00000    0.80500    0.25000    1.000
    C115     C        0.00000    0.56130    0.25000    1.000
    C116     C        0.00000    0.43050    0.25000    1.000
    C117     C        0.50000    0.56410    0.75000    1.000
    C118     C        0.50000    0.69500    0.75000    1.000
    C119     C        0.50000    0.93870    0.75000    1.000
    C120     C        0.50000    0.06950    0.75000    1.000
    C121     C        0.00000    0.06410    0.75000    1.000
    C122     C        0.00000    0.19500    0.75000    1.000
    C123     C        0.00000    0.43870    0.75000    1.000
    C124     C        0.00000    0.56950    0.75000    1.000
    C125     C        0.50000    0.43590    0.25000    1.000
    C126     C        0.50000    0.30500    0.25000    1.000
    C127     C        0.50000    0.06130    0.25000    1.000
    C128     C        0.50000    0.93050    0.25000    1.000
