# CIF file generated by openbabel 3.1.0, see https://openbabel.org
data_I
_chemical_name_common 'image0'
_cell_length_a 17.4675
_cell_length_b 17.4675
_cell_length_c 57.836
_cell_angle_alpha 90
_cell_angle_beta 90
_cell_angle_gamma 90
_space_group_name_H-M_alt 'P 1'
_space_group_name_Hall 'P 1'
loop_
    _symmetry_equiv_pos_as_xyz
    x,y,z
loop_
    _atom_site_label
    _atom_site_type_symbol
    _atom_site_fract_x
    _atom_site_fract_y
    _atom_site_fract_z
    _atom_site_occupancy
    Co1      Co       0.13414    0.40394    0.58759    1.000
    Co2      Co       0.12284    0.22682    0.61999    1.000
    N1       N        0.74357    0.09011    0.58769    1.000
    N2       N        0.12489    0.47190    0.55707    1.000
    O1       O        0.25473    0.12098    0.64390    1.000
    O2       O        0.23212    0.19559    0.61286    1.000
    O3       O        0.13312    0.81063    0.43436    1.000
    O4       O        0.09050    0.70890    0.41454    1.000
    O5       O        0.13101    0.34225    0.61809    1.000
    H1       H        0.17130    0.35430    0.62550    1.000
    C1       C        0.70030    0.14260    0.57785    1.000
    H2       H        0.72410    0.17800    0.56770    1.000
    C2       C        0.62284    0.14910    0.58143    1.000
    H3       H        0.59510    0.18830    0.57370    1.000
    C3       C        0.58518    0.10048    0.59583    1.000
    C4       C        0.62974    0.04070    0.60449    1.000
    H4       H        0.60620    0.00140    0.61330    1.000
    C5       C        0.70596    0.03796    0.60044    1.000
    H5       H        0.73440    0.99700    0.60700    1.000
    C6       C        0.50427    0.11024    0.60231    1.000
    C7       C        0.45096    0.14210    0.58744    1.000
    H6       H        0.46560    0.15520    0.57210    1.000
    C8       C        0.37677    0.15490    0.59464    1.000
    H7       H        0.34100    0.17690    0.58420    1.000
    C9       C        0.35346    0.13643    0.61686    1.000
    C10      C        0.40551    0.10190    0.63115    1.000
    H8       H        0.39050    0.08780    0.64630    1.000
    C11      C        0.47887    0.08740    0.62398    1.000
    H9       H        0.51300    0.06120    0.63400    1.000
    C12      C        0.27358    0.15230    0.62512    1.000
    C13      C        0.08010    0.45290    0.53974    1.000
    H10      H        0.05010    0.40770    0.54120    1.000
    C14      C        0.07390    0.49490    0.51925    1.000
    H11      H        0.04010    0.47870    0.50730    1.000
    C15      C        0.11756    0.56058    0.51652    1.000
    C16      C        0.15940    0.58570    0.53633    1.000
    H12      H        0.18560    0.63330    0.53610    1.000
    C17      C        0.16140    0.54050    0.55557    1.000
    H13      H        0.18980    0.55780    0.56860    1.000
    C18      C        0.11523    0.60714    0.49511    1.000
    C19      C        0.12080    0.57200    0.47336    1.000
    H14      H        0.12600    0.51800    0.47230    1.000
    C20      C        0.11875    0.61610    0.45357    1.000
    H15      H        0.12160    0.59190    0.43890    1.000
    C21      C        0.11259    0.69515    0.45473    1.000
    C22      C        0.10960    0.72973    0.47608    1.000
    H16      H        0.10730    0.78400    0.47710    1.000
    C23      C        0.10980    0.68635    0.49615    1.000
    H17      H        0.10610    0.71110    0.51070    1.000
    C24      C        0.11254    0.74238    0.43303    1.000
    C25      C        0.16710    0.45000    0.53750    1.000
    H18      H        0.19710    0.40470    0.53820    1.000
    C26      C        0.16660    0.49140    0.51757    1.000
    H19      H        0.19690    0.47640    0.50470    1.000
    C27      C        0.07930    0.57740    0.53537    1.000
    H20      H        0.04640    0.62070    0.53560    1.000
    C28      C        0.08700    0.53190    0.55494    1.000
    H21      H        0.06020    0.54850    0.56830    1.000
    Co3      Co       0.63414    0.90394    0.08759    1.000
    Co4      Co       0.62284    0.72682    0.11999    1.000
    N3       N        0.24357    0.59011    0.08769    1.000
    N4       N        0.62489    0.97190    0.05707    1.000
    O6       O        0.75473    0.62098    0.14390    1.000
    O7       O        0.73212    0.69559    0.11286    1.000
    O8       O        0.63312    0.31063    0.93436    1.000
    O9       O        0.59050    0.20890    0.91454    1.000
    O10      O        0.63101    0.84225    0.11809    1.000
    H22      H        0.67130    0.85430    0.12550    1.000
    C29      C        0.20030    0.64260    0.07785    1.000
    H23      H        0.22410    0.67800    0.06770    1.000
    C30      C        0.12284    0.64910    0.08143    1.000
    H24      H        0.09510    0.68830    0.07370    1.000
    C31      C        0.08518    0.60048    0.09583    1.000
    C32      C        0.12974    0.54070    0.10449    1.000
    H25      H        0.10620    0.50140    0.11330    1.000
    C33      C        0.20596    0.53796    0.10044    1.000
    H26      H        0.23440    0.49700    0.10700    1.000
    C34      C        0.00427    0.61024    0.10231    1.000
    C35      C        0.95096    0.64210    0.08744    1.000
    H27      H        0.96560    0.65520    0.07210    1.000
    C36      C        0.87677    0.65490    0.09464    1.000
    H28      H        0.84100    0.67690    0.08420    1.000
    C37      C        0.85346    0.63643    0.11686    1.000
    C38      C        0.90551    0.60190    0.13115    1.000
    H29      H        0.89050    0.58780    0.14630    1.000
    C39      C        0.97887    0.58740    0.12398    1.000
    H30      H        0.01300    0.56120    0.13400    1.000
    C40      C        0.77358    0.65230    0.12512    1.000
    C41      C        0.58010    0.95290    0.03974    1.000
    H31      H        0.55010    0.90770    0.04120    1.000
    C42      C        0.57390    0.99490    0.01925    1.000
    H32      H        0.54010    0.97870    0.00730    1.000
    C43      C        0.61756    0.06058    0.01652    1.000
    C44      C        0.65940    0.08570    0.03633    1.000
    H33      H        0.68560    0.13330    0.03610    1.000
    C45      C        0.66140    0.04050    0.05557    1.000
    H34      H        0.68980    0.05780    0.06860    1.000
    C46      C        0.61523    0.10714    0.99511    1.000
    C47      C        0.62080    0.07200    0.97336    1.000
    H35      H        0.62600    0.01800    0.97230    1.000
    C48      C        0.61875    0.11610    0.95357    1.000
    H36      H        0.62160    0.09190    0.93890    1.000
    C49      C        0.61259    0.19515    0.95473    1.000
    C50      C        0.60960    0.22973    0.97608    1.000
    H37      H        0.60730    0.28400    0.97710    1.000
    C51      C        0.60980    0.18635    0.99615    1.000
    H38      H        0.60610    0.21110    0.01070    1.000
    C52      C        0.61254    0.24238    0.93303    1.000
    C53      C        0.66710    0.95000    0.03750    1.000
    H39      H        0.69710    0.90470    0.03820    1.000
    C54      C        0.66660    0.99140    0.01757    1.000
    H40      H        0.69690    0.97640    0.00470    1.000
    C55      C        0.57930    0.07740    0.03537    1.000
    H41      H        0.54640    0.12070    0.03560    1.000
    C56      C        0.58700    0.03190    0.05494    1.000
    H42      H        0.56020    0.04850    0.06830    1.000
    Co5      Co       0.36586    0.59606    0.08759    1.000
    Co6      Co       0.37716    0.77318    0.11999    1.000
    N5       N        0.75643    0.90989    0.08769    1.000
    N6       N        0.37511    0.52810    0.05707    1.000
    O11      O        0.24527    0.87902    0.14390    1.000
    O12      O        0.26788    0.80441    0.11286    1.000
    O13      O        0.36688    0.18937    0.93436    1.000
    O14      O        0.40950    0.29110    0.91454    1.000
    O15      O        0.36899    0.65775    0.11809    1.000
    H43      H        0.32870    0.64570    0.12550    1.000
    C57      C        0.79970    0.85740    0.07785    1.000
    H44      H        0.77590    0.82200    0.06770    1.000
    C58      C        0.87716    0.85090    0.08143    1.000
    H45      H        0.90490    0.81170    0.07370    1.000
    C59      C        0.91482    0.89952    0.09583    1.000
    C60      C        0.87026    0.95930    0.10449    1.000
    H46      H        0.89380    0.99860    0.11330    1.000
    C61      C        0.79404    0.96204    0.10044    1.000
    H47      H        0.76560    0.00300    0.10700    1.000
    C62      C        0.99573    0.88976    0.10231    1.000
    C63      C        0.04904    0.85790    0.08744    1.000
    H48      H        0.03440    0.84480    0.07210    1.000
    C64      C        0.12323    0.84510    0.09464    1.000
    H49      H        0.15900    0.82310    0.08420    1.000
    C65      C        0.14654    0.86357    0.11686    1.000
    C66      C        0.09449    0.89810    0.13115    1.000
    H50      H        0.10950    0.91220    0.14630    1.000
    C67      C        0.02113    0.91260    0.12398    1.000
    H51      H        0.98700    0.93880    0.13400    1.000
    C68      C        0.22642    0.84770    0.12512    1.000
    C69      C        0.41990    0.54710    0.03974    1.000
    H52      H        0.44990    0.59230    0.04120    1.000
    C70      C        0.42610    0.50510    0.01925    1.000
    H53      H        0.45990    0.52130    0.00730    1.000
    C71      C        0.38244    0.43942    0.01652    1.000
    C72      C        0.34060    0.41430    0.03633    1.000
    H54      H        0.31440    0.36670    0.03610    1.000
    C73      C        0.33860    0.45950    0.05557    1.000
    H55      H        0.31020    0.44220    0.06860    1.000
    C74      C        0.38477    0.39286    0.99511    1.000
    C75      C        0.37920    0.42800    0.97336    1.000
    H56      H        0.37400    0.48200    0.97230    1.000
    C76      C        0.38125    0.38390    0.95357    1.000
    H57      H        0.37840    0.40810    0.93890    1.000
    C77      C        0.38741    0.30485    0.95473    1.000
    C78      C        0.39040    0.27027    0.97608    1.000
    H58      H        0.39270    0.21600    0.97710    1.000
    C79      C        0.39020    0.31365    0.99615    1.000
    H59      H        0.39390    0.28890    0.01070    1.000
    C80      C        0.38746    0.25762    0.93303    1.000
    C81      C        0.33290    0.55000    0.03750    1.000
    H60      H        0.30290    0.59530    0.03820    1.000
    C82      C        0.33340    0.50860    0.01757    1.000
    H61      H        0.30310    0.52360    0.00470    1.000
    C83      C        0.42070    0.42260    0.03537    1.000
    H62      H        0.45360    0.37930    0.03560    1.000
    C84      C        0.41300    0.46810    0.05494    1.000
    H63      H        0.43980    0.45150    0.06830    1.000
    Co7      Co       0.86586    0.09606    0.58759    1.000
    Co8      Co       0.87716    0.27318    0.61999    1.000
    N7       N        0.25643    0.40989    0.58769    1.000
    N8       N        0.87511    0.02810    0.55707    1.000
    O16      O        0.74527    0.37902    0.64390    1.000
    O17      O        0.76788    0.30441    0.61286    1.000
    O18      O        0.86688    0.68937    0.43436    1.000
    O19      O        0.90950    0.79110    0.41454    1.000
    O20      O        0.86899    0.15775    0.61809    1.000
    H64      H        0.82870    0.14570    0.62550    1.000
    C85      C        0.29970    0.35740    0.57785    1.000
    H65      H        0.27590    0.32200    0.56770    1.000
    C86      C        0.37716    0.35090    0.58143    1.000
    H66      H        0.40490    0.31170    0.57370    1.000
    C87      C        0.41482    0.39952    0.59583    1.000
    C88      C        0.37026    0.45930    0.60449    1.000
    H67      H        0.39380    0.49860    0.61330    1.000
    C89      C        0.29404    0.46204    0.60044    1.000
    H68      H        0.26560    0.50300    0.60700    1.000
    C90      C        0.49573    0.38976    0.60231    1.000
    C91      C        0.54904    0.35790    0.58744    1.000
    H69      H        0.53440    0.34480    0.57210    1.000
    C92      C        0.62323    0.34510    0.59464    1.000
    H70      H        0.65900    0.32310    0.58420    1.000
    C93      C        0.64654    0.36357    0.61686    1.000
    C94      C        0.59449    0.39810    0.63115    1.000
    H71      H        0.60950    0.41220    0.64630    1.000
    C95      C        0.52113    0.41260    0.62398    1.000
    H72      H        0.48700    0.43880    0.63400    1.000
    C96      C        0.72642    0.34770    0.62512    1.000
    C97      C        0.91990    0.04710    0.53974    1.000
    H73      H        0.94990    0.09230    0.54120    1.000
    C98      C        0.92610    0.00510    0.51925    1.000
    H74      H        0.95990    0.02130    0.50730    1.000
    C99      C        0.88244    0.93942    0.51652    1.000
    C100     C        0.84060    0.91430    0.53633    1.000
    H75      H        0.81440    0.86670    0.53610    1.000
    C101     C        0.83860    0.95950    0.55557    1.000
    H76      H        0.81020    0.94220    0.56860    1.000
    C102     C        0.88477    0.89286    0.49511    1.000
    C103     C        0.87920    0.92800    0.47336    1.000
    H77      H        0.87400    0.98200    0.47230    1.000
    C104     C        0.88125    0.88390    0.45357    1.000
    H78      H        0.87840    0.90810    0.43890    1.000
    C105     C        0.88741    0.80485    0.45473    1.000
    C106     C        0.89040    0.77027    0.47608    1.000
    H79      H        0.89270    0.71600    0.47710    1.000
    C107     C        0.89020    0.81365    0.49615    1.000
    H80      H        0.89390    0.78890    0.51070    1.000
    C108     C        0.88746    0.75762    0.43303    1.000
    C109     C        0.83290    0.05000    0.53750    1.000
    H81      H        0.80290    0.09530    0.53820    1.000
    C110     C        0.83340    0.00860    0.51757    1.000
    H82      H        0.80310    0.02360    0.50470    1.000
    C111     C        0.92070    0.92260    0.53537    1.000
    H83      H        0.95360    0.87930    0.53560    1.000
    C112     C        0.91300    0.96810    0.55494    1.000
    H84      H        0.93980    0.95150    0.56830    1.000
    Co9      Co       0.34606    0.38414    0.83759    1.000
    Co10     Co       0.52318    0.37284    0.86999    1.000
    N9       N        0.65989    0.99357    0.83769    1.000
    N10      N        0.27810    0.37489    0.80707    1.000
    O21      O        0.62902    0.50473    0.89390    1.000
    O22      O        0.55441    0.48212    0.86286    1.000
    O23      O        0.93937    0.38312    0.68436    1.000
    O24      O        0.04110    0.34050    0.66454    1.000
    O25      O        0.40775    0.38101    0.86809    1.000
    H85      H        0.39570    0.42130    0.87550    1.000
    C113     C        0.60740    0.95030    0.82785    1.000
    H86      H        0.57200    0.97410    0.81770    1.000
    C114     C        0.60090    0.87284    0.83143    1.000
    H87      H        0.56170    0.84510    0.82370    1.000
    C115     C        0.64952    0.83518    0.84583    1.000
    C116     C        0.70930    0.87974    0.85449    1.000
    H88      H        0.74860    0.85620    0.86330    1.000
    C117     C        0.71204    0.95596    0.85044    1.000
    H89      H        0.75300    0.98440    0.85700    1.000
    C118     C        0.63976    0.75427    0.85231    1.000
    C119     C        0.60790    0.70096    0.83744    1.000
    H90      H        0.59480    0.71560    0.82210    1.000
    C120     C        0.59510    0.62677    0.84464    1.000
    H91      H        0.57310    0.59100    0.83420    1.000
    C121     C        0.61357    0.60346    0.86686    1.000
    C122     C        0.64810    0.65551    0.88115    1.000
    H92      H        0.66220    0.64050    0.89630    1.000
    C123     C        0.66260    0.72887    0.87398    1.000
    H93      H        0.68880    0.76300    0.88400    1.000
    C124     C        0.59770    0.52358    0.87512    1.000
    C125     C        0.29710    0.33010    0.78974    1.000
    H94      H        0.34230    0.30010    0.79120    1.000
    C126     C        0.25510    0.32390    0.76925    1.000
    H95      H        0.27130    0.29010    0.75730    1.000
    C127     C        0.18942    0.36756    0.76652    1.000
    C128     C        0.16430    0.40940    0.78633    1.000
    H96      H        0.11670    0.43560    0.78610    1.000
    C129     C        0.20950    0.41140    0.80557    1.000
    H97      H        0.19220    0.43980    0.81860    1.000
    C130     C        0.14286    0.36523    0.74511    1.000
    C131     C        0.17800    0.37080    0.72336    1.000
    H98      H        0.23200    0.37600    0.72230    1.000
    C132     C        0.13390    0.36875    0.70357    1.000
    H99      H        0.15810    0.37160    0.68890    1.000
    C133     C        0.05485    0.36259    0.70473    1.000
    C134     C        0.02027    0.35960    0.72608    1.000
    H100     H        0.96600    0.35730    0.72710    1.000
    C135     C        0.06365    0.35980    0.74615    1.000
    H101     H        0.03890    0.35610    0.76070    1.000
    C136     C        0.00762    0.36254    0.68303    1.000
    C137     C        0.30000    0.41710    0.78750    1.000
    H102     H        0.34530    0.44710    0.78820    1.000
    C138     C        0.25860    0.41660    0.76757    1.000
    H103     H        0.27360    0.44690    0.75470    1.000
    C139     C        0.17260    0.32930    0.78537    1.000
    H104     H        0.12930    0.29640    0.78560    1.000
    C140     C        0.21810    0.33700    0.80494    1.000
    H105     H        0.20150    0.31020    0.81830    1.000
    Co11     Co       0.84606    0.88414    0.33759    1.000
    Co12     Co       0.02318    0.87284    0.36999    1.000
    N11      N        0.15989    0.49357    0.33769    1.000
    N12      N        0.77810    0.87489    0.30707    1.000
    O26      O        0.12902    0.00473    0.39390    1.000
    O27      O        0.05441    0.98212    0.36286    1.000
    O28      O        0.43937    0.88312    0.18436    1.000
    O29      O        0.54110    0.84050    0.16454    1.000
    O30      O        0.90775    0.88101    0.36809    1.000
    H106     H        0.89570    0.92130    0.37550    1.000
    C141     C        0.10740    0.45030    0.32785    1.000
    H107     H        0.07200    0.47410    0.31770    1.000
    C142     C        0.10090    0.37284    0.33143    1.000
    H108     H        0.06170    0.34510    0.32370    1.000
    C143     C        0.14952    0.33518    0.34583    1.000
    C144     C        0.20930    0.37974    0.35449    1.000
    H109     H        0.24860    0.35620    0.36330    1.000
    C145     C        0.21204    0.45596    0.35044    1.000
    H110     H        0.25300    0.48440    0.35700    1.000
    C146     C        0.13976    0.25427    0.35231    1.000
    C147     C        0.10790    0.20096    0.33744    1.000
    H111     H        0.09480    0.21560    0.32210    1.000
    C148     C        0.09510    0.12677    0.34464    1.000
    H112     H        0.07310    0.09100    0.33420    1.000
    C149     C        0.11357    0.10346    0.36686    1.000
    C150     C        0.14810    0.15551    0.38115    1.000
    H113     H        0.16220    0.14050    0.39630    1.000
    C151     C        0.16260    0.22887    0.37398    1.000
    H114     H        0.18880    0.26300    0.38400    1.000
    C152     C        0.09770    0.02358    0.37512    1.000
    C153     C        0.79710    0.83010    0.28974    1.000
    H115     H        0.84230    0.80010    0.29120    1.000
    C154     C        0.75510    0.82390    0.26925    1.000
    H116     H        0.77130    0.79010    0.25730    1.000
    C155     C        0.68942    0.86756    0.26652    1.000
    C156     C        0.66430    0.90940    0.28633    1.000
    H117     H        0.61670    0.93560    0.28610    1.000
    C157     C        0.70950    0.91140    0.30557    1.000
    H118     H        0.69220    0.93980    0.31860    1.000
    C158     C        0.64286    0.86523    0.24511    1.000
    C159     C        0.67800    0.87080    0.22336    1.000
    H119     H        0.73200    0.87600    0.22230    1.000
    C160     C        0.63390    0.86875    0.20357    1.000
    H120     H        0.65810    0.87160    0.18890    1.000
    C161     C        0.55485    0.86259    0.20473    1.000
    C162     C        0.52027    0.85960    0.22608    1.000
    H121     H        0.46600    0.85730    0.22710    1.000
    C163     C        0.56365    0.85980    0.24615    1.000
    H122     H        0.53890    0.85610    0.26070    1.000
    C164     C        0.50762    0.86254    0.18303    1.000
    C165     C        0.80000    0.91710    0.28750    1.000
    H123     H        0.84530    0.94710    0.28820    1.000
    C166     C        0.75860    0.91660    0.26757    1.000
    H124     H        0.77360    0.94690    0.25470    1.000
    C167     C        0.67260    0.82930    0.28537    1.000
    H125     H        0.62930    0.79640    0.28560    1.000
    C168     C        0.71810    0.83700    0.30494    1.000
    H126     H        0.70150    0.81020    0.31830    1.000
    Co13     Co       0.15394    0.61586    0.33759    1.000
    Co14     Co       0.97682    0.62716    0.36999    1.000
    N13      N        0.84011    0.00643    0.33769    1.000
    N14      N        0.22190    0.62511    0.30707    1.000
    O31      O        0.87098    0.49527    0.39390    1.000
    O32      O        0.94559    0.51788    0.36286    1.000
    O33      O        0.56063    0.61688    0.18436    1.000
    O34      O        0.45890    0.65950    0.16454    1.000
    O35      O        0.09225    0.61899    0.36809    1.000
    H127     H        0.10430    0.57870    0.37550    1.000
    C169     C        0.89260    0.04970    0.32785    1.000
    H128     H        0.92800    0.02590    0.31770    1.000
    C170     C        0.89910    0.12716    0.33143    1.000
    H129     H        0.93830    0.15490    0.32370    1.000
    C171     C        0.85048    0.16482    0.34583    1.000
    C172     C        0.79070    0.12026    0.35449    1.000
    H130     H        0.75140    0.14380    0.36330    1.000
    C173     C        0.78796    0.04404    0.35044    1.000
    H131     H        0.74700    0.01560    0.35700    1.000
    C174     C        0.86024    0.24573    0.35231    1.000
    C175     C        0.89210    0.29904    0.33744    1.000
    H132     H        0.90520    0.28440    0.32210    1.000
    C176     C        0.90490    0.37323    0.34464    1.000
    H133     H        0.92690    0.40900    0.33420    1.000
    C177     C        0.88643    0.39654    0.36686    1.000
    C178     C        0.85190    0.34449    0.38115    1.000
    H134     H        0.83780    0.35950    0.39630    1.000
    C179     C        0.83740    0.27113    0.37398    1.000
    H135     H        0.81120    0.23700    0.38400    1.000
    C180     C        0.90230    0.47642    0.37512    1.000
    C181     C        0.20290    0.66990    0.28974    1.000
    H136     H        0.15770    0.69990    0.29120    1.000
    C182     C        0.24490    0.67610    0.26925    1.000
    H137     H        0.22870    0.70990    0.25730    1.000
    C183     C        0.31058    0.63244    0.26652    1.000
    C184     C        0.33570    0.59060    0.28633    1.000
    H138     H        0.38330    0.56440    0.28610    1.000
    C185     C        0.29050    0.58860    0.30557    1.000
    H139     H        0.30780    0.56020    0.31860    1.000
    C186     C        0.35714    0.63477    0.24511    1.000
    C187     C        0.32200    0.62920    0.22336    1.000
    H140     H        0.26800    0.62400    0.22230    1.000
    C188     C        0.36610    0.63125    0.20357    1.000
    H141     H        0.34190    0.62840    0.18890    1.000
    C189     C        0.44515    0.63741    0.20473    1.000
    C190     C        0.47973    0.64040    0.22608    1.000
    H142     H        0.53400    0.64270    0.22710    1.000
    C191     C        0.43635    0.64020    0.24615    1.000
    H143     H        0.46110    0.64390    0.26070    1.000
    C192     C        0.49238    0.63746    0.18303    1.000
    C193     C        0.20000    0.58290    0.28750    1.000
    H144     H        0.15470    0.55290    0.28820    1.000
    C194     C        0.24140    0.58340    0.26757    1.000
    H145     H        0.22640    0.55310    0.25470    1.000
    C195     C        0.32740    0.67070    0.28537    1.000
    H146     H        0.37070    0.70360    0.28560    1.000
    C196     C        0.28190    0.66300    0.30494    1.000
    H147     H        0.29850    0.68980    0.31830    1.000
    Co15     Co       0.65394    0.11586    0.83759    1.000
    Co16     Co       0.47682    0.12716    0.86999    1.000
    N15      N        0.34011    0.50643    0.83769    1.000
    N16      N        0.72190    0.12511    0.80707    1.000
    O36      O        0.37098    0.99527    0.89390    1.000
    O37      O        0.44559    0.01788    0.86286    1.000
    O38      O        0.06063    0.11688    0.68436    1.000
    O39      O        0.95890    0.15950    0.66454    1.000
    O40      O        0.59225    0.11899    0.86809    1.000
    H148     H        0.60430    0.07870    0.87550    1.000
    C197     C        0.39260    0.54970    0.82785    1.000
    H149     H        0.42800    0.52590    0.81770    1.000
    C198     C        0.39910    0.62716    0.83143    1.000
    H150     H        0.43830    0.65490    0.82370    1.000
    C199     C        0.35048    0.66482    0.84583    1.000
    C200     C        0.29070    0.62026    0.85449    1.000
    H151     H        0.25140    0.64380    0.86330    1.000
    C201     C        0.28796    0.54404    0.85044    1.000
    H152     H        0.24700    0.51560    0.85700    1.000
    C202     C        0.36024    0.74573    0.85231    1.000
    C203     C        0.39210    0.79904    0.83744    1.000
    H153     H        0.40520    0.78440    0.82210    1.000
    C204     C        0.40490    0.87323    0.84464    1.000
    H154     H        0.42690    0.90900    0.83420    1.000
    C205     C        0.38643    0.89654    0.86686    1.000
    C206     C        0.35190    0.84449    0.88115    1.000
    H155     H        0.33780    0.85950    0.89630    1.000
    C207     C        0.33740    0.77113    0.87398    1.000
    H156     H        0.31120    0.73700    0.88400    1.000
    C208     C        0.40230    0.97642    0.87512    1.000
    C209     C        0.70290    0.16990    0.78974    1.000
    H157     H        0.65770    0.19990    0.79120    1.000
    C210     C        0.74490    0.17610    0.76925    1.000
    H158     H        0.72870    0.20990    0.75730    1.000
    C211     C        0.81058    0.13244    0.76652    1.000
    C212     C        0.83570    0.09060    0.78633    1.000
    H159     H        0.88330    0.06440    0.78610    1.000
    C213     C        0.79050    0.08860    0.80557    1.000
    H160     H        0.80780    0.06020    0.81860    1.000
    C214     C        0.85714    0.13477    0.74511    1.000
    C215     C        0.82200    0.12920    0.72336    1.000
    H161     H        0.76800    0.12400    0.72230    1.000
    C216     C        0.86610    0.13125    0.70357    1.000
    H162     H        0.84190    0.12840    0.68890    1.000
    C217     C        0.94515    0.13741    0.70473    1.000
    C218     C        0.97973    0.14040    0.72608    1.000
    H163     H        0.03400    0.14270    0.72710    1.000
    C219     C        0.93635    0.14020    0.74615    1.000
    H164     H        0.96110    0.14390    0.76070    1.000
    C220     C        0.99238    0.13746    0.68303    1.000
    C221     C        0.70000    0.08290    0.78750    1.000
    H165     H        0.65470    0.05290    0.78820    1.000
    C222     C        0.74140    0.08340    0.76757    1.000
    H166     H        0.72640    0.05310    0.75470    1.000
    C223     C        0.82740    0.17070    0.78537    1.000
    H167     H        0.87070    0.20360    0.78560    1.000
    C224     C        0.78190    0.16300    0.80494    1.000
    H168     H        0.79850    0.18980    0.81830    1.000
    Co17     Co       0.86586    0.59606    0.41241    1.000
    Co18     Co       0.87716    0.77318    0.38001    1.000
    N17      N        0.25643    0.90989    0.41231    1.000
    N18      N        0.87511    0.52810    0.44293    1.000
    O41      O        0.74527    0.87902    0.35610    1.000
    O42      O        0.76788    0.80441    0.38714    1.000
    O43      O        0.86688    0.18937    0.56564    1.000
    O44      O        0.90950    0.29110    0.58546    1.000
    O45      O        0.86899    0.65775    0.38191    1.000
    H169     H        0.82870    0.64570    0.37450    1.000
    C225     C        0.29970    0.85740    0.42215    1.000
    H170     H        0.27590    0.82200    0.43230    1.000
    C226     C        0.37716    0.85090    0.41857    1.000
    H171     H        0.40490    0.81170    0.42630    1.000
    C227     C        0.41482    0.89952    0.40417    1.000
    C228     C        0.37026    0.95930    0.39551    1.000
    H172     H        0.39380    0.99860    0.38670    1.000
    C229     C        0.29404    0.96204    0.39956    1.000
    H173     H        0.26560    0.00300    0.39300    1.000
    C230     C        0.49573    0.88976    0.39769    1.000
    C231     C        0.54904    0.85790    0.41256    1.000
    H174     H        0.53440    0.84480    0.42790    1.000
    C232     C        0.62323    0.84510    0.40536    1.000
    H175     H        0.65900    0.82310    0.41580    1.000
    C233     C        0.64654    0.86357    0.38314    1.000
    C234     C        0.59449    0.89810    0.36885    1.000
    H176     H        0.60950    0.91220    0.35370    1.000
    C235     C        0.52113    0.91260    0.37602    1.000
    H177     H        0.48700    0.93880    0.36600    1.000
    C236     C        0.72642    0.84770    0.37488    1.000
    C237     C        0.91990    0.54710    0.46026    1.000
    H178     H        0.94990    0.59230    0.45880    1.000
    C238     C        0.92610    0.50510    0.48075    1.000
    H179     H        0.95990    0.52130    0.49270    1.000
    C239     C        0.88244    0.43942    0.48348    1.000
    C240     C        0.84060    0.41430    0.46367    1.000
    H180     H        0.81440    0.36670    0.46390    1.000
    C241     C        0.83860    0.45950    0.44443    1.000
    H181     H        0.81020    0.44220    0.43140    1.000
    C242     C        0.88477    0.39286    0.50489    1.000
    C243     C        0.87920    0.42800    0.52664    1.000
    H182     H        0.87400    0.48200    0.52770    1.000
    C244     C        0.88125    0.38390    0.54643    1.000
    H183     H        0.87840    0.40810    0.56110    1.000
    C245     C        0.88741    0.30485    0.54527    1.000
    C246     C        0.89040    0.27027    0.52392    1.000
    H184     H        0.89270    0.21600    0.52290    1.000
    C247     C        0.89020    0.31365    0.50385    1.000
    H185     H        0.89390    0.28890    0.48930    1.000
    C248     C        0.88746    0.25762    0.56697    1.000
    C249     C        0.83290    0.55000    0.46250    1.000
    H186     H        0.80290    0.59530    0.46180    1.000
    C250     C        0.83340    0.50860    0.48243    1.000
    H187     H        0.80310    0.52360    0.49530    1.000
    C251     C        0.92070    0.42260    0.46463    1.000
    H188     H        0.95360    0.37930    0.46440    1.000
    C252     C        0.91300    0.46810    0.44506    1.000
    H189     H        0.93980    0.45150    0.43170    1.000
    Co19     Co       0.36586    0.09606    0.91241    1.000
    Co20     Co       0.37716    0.27318    0.88001    1.000
    N19      N        0.75643    0.40989    0.91231    1.000
    N20      N        0.37511    0.02810    0.94293    1.000
    O46      O        0.24527    0.37902    0.85610    1.000
    O47      O        0.26788    0.30441    0.88714    1.000
    O48      O        0.36688    0.68937    0.06564    1.000
    O49      O        0.40950    0.79110    0.08546    1.000
    O50      O        0.36899    0.15775    0.88191    1.000
    H190     H        0.32870    0.14570    0.87450    1.000
    C253     C        0.79970    0.35740    0.92215    1.000
    H191     H        0.77590    0.32200    0.93230    1.000
    C254     C        0.87716    0.35090    0.91857    1.000
    H192     H        0.90490    0.31170    0.92630    1.000
    C255     C        0.91482    0.39952    0.90417    1.000
    C256     C        0.87026    0.45930    0.89551    1.000
    H193     H        0.89380    0.49860    0.88670    1.000
    C257     C        0.79404    0.46204    0.89956    1.000
    H194     H        0.76560    0.50300    0.89300    1.000
    C258     C        0.99573    0.38976    0.89769    1.000
    C259     C        0.04904    0.35790    0.91256    1.000
    H195     H        0.03440    0.34480    0.92790    1.000
    C260     C        0.12323    0.34510    0.90536    1.000
    H196     H        0.15900    0.32310    0.91580    1.000
    C261     C        0.14654    0.36357    0.88314    1.000
    C262     C        0.09449    0.39810    0.86885    1.000
    H197     H        0.10950    0.41220    0.85370    1.000
    C263     C        0.02113    0.41260    0.87602    1.000
    H198     H        0.98700    0.43880    0.86600    1.000
    C264     C        0.22642    0.34770    0.87488    1.000
    C265     C        0.41990    0.04710    0.96026    1.000
    H199     H        0.44990    0.09230    0.95880    1.000
    C266     C        0.42610    0.00510    0.98075    1.000
    H200     H        0.45990    0.02130    0.99270    1.000
    C267     C        0.38244    0.93942    0.98348    1.000
    C268     C        0.34060    0.91430    0.96367    1.000
    H201     H        0.31440    0.86670    0.96390    1.000
    C269     C        0.33860    0.95950    0.94443    1.000
    H202     H        0.31020    0.94220    0.93140    1.000
    C270     C        0.38477    0.89286    0.00489    1.000
    C271     C        0.37920    0.92800    0.02664    1.000
    H203     H        0.37400    0.98200    0.02770    1.000
    C272     C        0.38125    0.88390    0.04643    1.000
    H204     H        0.37840    0.90810    0.06110    1.000
    C273     C        0.38741    0.80485    0.04527    1.000
    C274     C        0.39040    0.77027    0.02392    1.000
    H205     H        0.39270    0.71600    0.02290    1.000
    C275     C        0.39020    0.81365    0.00385    1.000
    H206     H        0.39390    0.78890    0.98930    1.000
    C276     C        0.38746    0.75762    0.06697    1.000
    C277     C        0.33290    0.05000    0.96250    1.000
    H207     H        0.30290    0.09530    0.96180    1.000
    C278     C        0.33340    0.00860    0.98243    1.000
    H208     H        0.30310    0.02360    0.99530    1.000
    C279     C        0.42070    0.92260    0.96463    1.000
    H209     H        0.45360    0.87930    0.96440    1.000
    C280     C        0.41300    0.96810    0.94506    1.000
    H210     H        0.43980    0.95150    0.93170    1.000
    Co21     Co       0.63414    0.40394    0.91241    1.000
    Co22     Co       0.62284    0.22682    0.88001    1.000
    N21      N        0.24357    0.09011    0.91231    1.000
    N22      N        0.62489    0.47190    0.94293    1.000
    O51      O        0.75473    0.12098    0.85610    1.000
    O52      O        0.73212    0.19559    0.88714    1.000
    O53      O        0.63312    0.81063    0.06564    1.000
    O54      O        0.59050    0.70890    0.08546    1.000
    O55      O        0.63101    0.34225    0.88191    1.000
    H211     H        0.67130    0.35430    0.87450    1.000
    C281     C        0.20030    0.14260    0.92215    1.000
    H212     H        0.22410    0.17800    0.93230    1.000
    C282     C        0.12284    0.14910    0.91857    1.000
    H213     H        0.09510    0.18830    0.92630    1.000
    C283     C        0.08518    0.10048    0.90417    1.000
    C284     C        0.12974    0.04070    0.89551    1.000
    H214     H        0.10620    0.00140    0.88670    1.000
    C285     C        0.20596    0.03796    0.89956    1.000
    H215     H        0.23440    0.99700    0.89300    1.000
    C286     C        0.00427    0.11024    0.89769    1.000
    C287     C        0.95096    0.14210    0.91256    1.000
    H216     H        0.96560    0.15520    0.92790    1.000
    C288     C        0.87677    0.15490    0.90536    1.000
    H217     H        0.84100    0.17690    0.91580    1.000
    C289     C        0.85346    0.13643    0.88314    1.000
    C290     C        0.90551    0.10190    0.86885    1.000
    H218     H        0.89050    0.08780    0.85370    1.000
    C291     C        0.97887    0.08740    0.87602    1.000
    H219     H        0.01300    0.06120    0.86600    1.000
    C292     C        0.77358    0.15230    0.87488    1.000
    C293     C        0.58010    0.45290    0.96026    1.000
    H220     H        0.55010    0.40770    0.95880    1.000
    C294     C        0.57390    0.49490    0.98075    1.000
    H221     H        0.54010    0.47870    0.99270    1.000
    C295     C        0.61756    0.56058    0.98348    1.000
    C296     C        0.65940    0.58570    0.96367    1.000
    H222     H        0.68560    0.63330    0.96390    1.000
    C297     C        0.66140    0.54050    0.94443    1.000
    H223     H        0.68980    0.55780    0.93140    1.000
    C298     C        0.61523    0.60714    0.00489    1.000
    C299     C        0.62080    0.57200    0.02664    1.000
    H224     H        0.62600    0.51800    0.02770    1.000
    C300     C        0.61875    0.61610    0.04643    1.000
    H225     H        0.62160    0.59190    0.06110    1.000
    C301     C        0.61259    0.69515    0.04527    1.000
    C302     C        0.60960    0.72973    0.02392    1.000
    H226     H        0.60730    0.78400    0.02290    1.000
    C303     C        0.60980    0.68635    0.00385    1.000
    H227     H        0.60610    0.71110    0.98930    1.000
    C304     C        0.61254    0.74238    0.06697    1.000
    C305     C        0.66710    0.45000    0.96250    1.000
    H228     H        0.69710    0.40470    0.96180    1.000
    C306     C        0.66660    0.49140    0.98243    1.000
    H229     H        0.69690    0.47640    0.99530    1.000
    C307     C        0.57930    0.57740    0.96463    1.000
    H230     H        0.54640    0.62070    0.96440    1.000
    C308     C        0.58700    0.53190    0.94506    1.000
    H231     H        0.56020    0.54850    0.93170    1.000
    Co23     Co       0.13414    0.90394    0.41241    1.000
    Co24     Co       0.12284    0.72682    0.38001    1.000
    N23      N        0.74357    0.59011    0.41231    1.000
    N24      N        0.12489    0.97190    0.44293    1.000
    O56      O        0.25473    0.62098    0.35610    1.000
    O57      O        0.23212    0.69559    0.38714    1.000
    O58      O        0.13312    0.31063    0.56564    1.000
    O59      O        0.09050    0.20890    0.58546    1.000
    O60      O        0.13101    0.84225    0.38191    1.000
    H232     H        0.17130    0.85430    0.37450    1.000
    C309     C        0.70030    0.64260    0.42215    1.000
    H233     H        0.72410    0.67800    0.43230    1.000
    C310     C        0.62284    0.64910    0.41857    1.000
    H234     H        0.59510    0.68830    0.42630    1.000
    C311     C        0.58518    0.60048    0.40417    1.000
    C312     C        0.62974    0.54070    0.39551    1.000
    H235     H        0.60620    0.50140    0.38670    1.000
    C313     C        0.70596    0.53796    0.39956    1.000
    H236     H        0.73440    0.49700    0.39300    1.000
    C314     C        0.50427    0.61024    0.39769    1.000
    C315     C        0.45096    0.64210    0.41256    1.000
    H237     H        0.46560    0.65520    0.42790    1.000
    C316     C        0.37677    0.65490    0.40536    1.000
    H238     H        0.34100    0.67690    0.41580    1.000
    C317     C        0.35346    0.63643    0.38314    1.000
    C318     C        0.40551    0.60190    0.36885    1.000
    H239     H        0.39050    0.58780    0.35370    1.000
    C319     C        0.47887    0.58740    0.37602    1.000
    H240     H        0.51300    0.56120    0.36600    1.000
    C320     C        0.27358    0.65230    0.37488    1.000
    C321     C        0.08010    0.95290    0.46026    1.000
    H241     H        0.05010    0.90770    0.45880    1.000
    C322     C        0.07390    0.99490    0.48075    1.000
    H242     H        0.04010    0.97870    0.49270    1.000
    C323     C        0.11756    0.06058    0.48348    1.000
    C324     C        0.15940    0.08570    0.46367    1.000
    H243     H        0.18560    0.13330    0.46390    1.000
    C325     C        0.16140    0.04050    0.44443    1.000
    H244     H        0.18980    0.05780    0.43140    1.000
    C326     C        0.11523    0.10714    0.50489    1.000
    C327     C        0.12080    0.07200    0.52664    1.000
    H245     H        0.12600    0.01800    0.52770    1.000
    C328     C        0.11875    0.11610    0.54643    1.000
    H246     H        0.12160    0.09190    0.56110    1.000
    C329     C        0.11259    0.19515    0.54527    1.000
    C330     C        0.10960    0.22973    0.52392    1.000
    H247     H        0.10730    0.28400    0.52290    1.000
    C331     C        0.10980    0.18635    0.50385    1.000
    H248     H        0.10610    0.21110    0.48930    1.000
    C332     C        0.11254    0.24238    0.56697    1.000
    C333     C        0.16710    0.95000    0.46250    1.000
    H249     H        0.19710    0.90470    0.46180    1.000
    C334     C        0.16660    0.99140    0.48243    1.000
    H250     H        0.19690    0.97640    0.49530    1.000
    C335     C        0.07930    0.07740    0.46463    1.000
    H251     H        0.04640    0.12070    0.46440    1.000
    C336     C        0.08700    0.03190    0.44506    1.000
    H252     H        0.06020    0.04850    0.43170    1.000
    Co25     Co       0.65394    0.61586    0.16241    1.000
    Co26     Co       0.47682    0.62716    0.13001    1.000
    N25      N        0.34011    0.00643    0.16231    1.000
    N26      N        0.72190    0.62511    0.19293    1.000
    O61      O        0.37098    0.49527    0.10610    1.000
    O62      O        0.44559    0.51788    0.13714    1.000
    O63      O        0.06063    0.61688    0.31564    1.000
    O64      O        0.95890    0.65950    0.33546    1.000
    O65      O        0.59225    0.61899    0.13191    1.000
    H253     H        0.60430    0.57870    0.12450    1.000
    C337     C        0.39260    0.04970    0.17215    1.000
    H254     H        0.42800    0.02590    0.18230    1.000
    C338     C        0.39910    0.12716    0.16857    1.000
    H255     H        0.43830    0.15490    0.17630    1.000
    C339     C        0.35048    0.16482    0.15417    1.000
    C340     C        0.29070    0.12026    0.14551    1.000
    H256     H        0.25140    0.14380    0.13670    1.000
    C341     C        0.28796    0.04404    0.14956    1.000
    H257     H        0.24700    0.01560    0.14300    1.000
    C342     C        0.36024    0.24573    0.14769    1.000
    C343     C        0.39210    0.29904    0.16256    1.000
    H258     H        0.40520    0.28440    0.17790    1.000
    C344     C        0.40490    0.37323    0.15536    1.000
    H259     H        0.42690    0.40900    0.16580    1.000
    C345     C        0.38643    0.39654    0.13314    1.000
    C346     C        0.35190    0.34449    0.11885    1.000
    H260     H        0.33780    0.35950    0.10370    1.000
    C347     C        0.33740    0.27113    0.12602    1.000
    H261     H        0.31120    0.23700    0.11600    1.000
    C348     C        0.40230    0.47642    0.12488    1.000
    C349     C        0.70290    0.66990    0.21026    1.000
    H262     H        0.65770    0.69990    0.20880    1.000
    C350     C        0.74490    0.67610    0.23075    1.000
    H263     H        0.72870    0.70990    0.24270    1.000
    C351     C        0.81058    0.63244    0.23348    1.000
    C352     C        0.83570    0.59060    0.21367    1.000
    H264     H        0.88330    0.56440    0.21390    1.000
    C353     C        0.79050    0.58860    0.19443    1.000
    H265     H        0.80780    0.56020    0.18140    1.000
    C354     C        0.85714    0.63477    0.25489    1.000
    C355     C        0.82200    0.62920    0.27664    1.000
    H266     H        0.76800    0.62400    0.27770    1.000
    C356     C        0.86610    0.63125    0.29643    1.000
    H267     H        0.84190    0.62840    0.31110    1.000
    C357     C        0.94515    0.63741    0.29527    1.000
    C358     C        0.97973    0.64040    0.27392    1.000
    H268     H        0.03400    0.64270    0.27290    1.000
    C359     C        0.93635    0.64020    0.25385    1.000
    H269     H        0.96110    0.64390    0.23930    1.000
    C360     C        0.99238    0.63746    0.31697    1.000
    C361     C        0.70000    0.58290    0.21250    1.000
    H270     H        0.65470    0.55290    0.21180    1.000
    C362     C        0.74140    0.58340    0.23243    1.000
    H271     H        0.72640    0.55310    0.24530    1.000
    C363     C        0.82740    0.67070    0.21463    1.000
    H272     H        0.87070    0.70360    0.21440    1.000
    C364     C        0.78190    0.66300    0.19506    1.000
    H273     H        0.79850    0.68980    0.18170    1.000
    Co27     Co       0.15394    0.11586    0.66241    1.000
    Co28     Co       0.97682    0.12716    0.63001    1.000
    N27      N        0.84011    0.50643    0.66231    1.000
    N28      N        0.22190    0.12511    0.69293    1.000
    O66      O        0.87098    0.99527    0.60610    1.000
    O67      O        0.94559    0.01788    0.63714    1.000
    O68      O        0.56063    0.11688    0.81564    1.000
    O69      O        0.45890    0.15950    0.83546    1.000
    O70      O        0.09225    0.11899    0.63191    1.000
    H274     H        0.10430    0.07870    0.62450    1.000
    C365     C        0.89260    0.54970    0.67215    1.000
    H275     H        0.92800    0.52590    0.68230    1.000
    C366     C        0.89910    0.62716    0.66857    1.000
    H276     H        0.93830    0.65490    0.67630    1.000
    C367     C        0.85048    0.66482    0.65417    1.000
    C368     C        0.79070    0.62026    0.64551    1.000
    H277     H        0.75140    0.64380    0.63670    1.000
    C369     C        0.78796    0.54404    0.64956    1.000
    H278     H        0.74700    0.51560    0.64300    1.000
    C370     C        0.86024    0.74573    0.64769    1.000
    C371     C        0.89210    0.79904    0.66256    1.000
    H279     H        0.90520    0.78440    0.67790    1.000
    C372     C        0.90490    0.87323    0.65536    1.000
    H280     H        0.92690    0.90900    0.66580    1.000
    C373     C        0.88643    0.89654    0.63314    1.000
    C374     C        0.85190    0.84449    0.61885    1.000
    H281     H        0.83780    0.85950    0.60370    1.000
    C375     C        0.83740    0.77113    0.62602    1.000
    H282     H        0.81120    0.73700    0.61600    1.000
    C376     C        0.90230    0.97642    0.62488    1.000
    C377     C        0.20290    0.16990    0.71026    1.000
    H283     H        0.15770    0.19990    0.70880    1.000
    C378     C        0.24490    0.17610    0.73075    1.000
    H284     H        0.22870    0.20990    0.74270    1.000
    C379     C        0.31058    0.13244    0.73348    1.000
    C380     C        0.33570    0.09060    0.71367    1.000
    H285     H        0.38330    0.06440    0.71390    1.000
    C381     C        0.29050    0.08860    0.69443    1.000
    H286     H        0.30780    0.06020    0.68140    1.000
    C382     C        0.35714    0.13477    0.75489    1.000
    C383     C        0.32200    0.12920    0.77664    1.000
    H287     H        0.26800    0.12400    0.77770    1.000
    C384     C        0.36610    0.13125    0.79643    1.000
    H288     H        0.34190    0.12840    0.81110    1.000
    C385     C        0.44515    0.13741    0.79527    1.000
    C386     C        0.47973    0.14040    0.77392    1.000
    H289     H        0.53400    0.14270    0.77290    1.000
    C387     C        0.43635    0.14020    0.75385    1.000
    H290     H        0.46110    0.14390    0.73930    1.000
    C388     C        0.49238    0.13746    0.81697    1.000
    C389     C        0.20000    0.08290    0.71250    1.000
    H291     H        0.15470    0.05290    0.71180    1.000
    C390     C        0.24140    0.08340    0.73243    1.000
    H292     H        0.22640    0.05310    0.74530    1.000
    C391     C        0.32740    0.17070    0.71463    1.000
    H293     H        0.37070    0.20360    0.71440    1.000
    C392     C        0.28190    0.16300    0.69506    1.000
    H294     H        0.29850    0.18980    0.68170    1.000
    Co29     Co       0.84606    0.38414    0.66241    1.000
    Co30     Co       0.02318    0.37284    0.63001    1.000
    N29      N        0.15989    0.99357    0.66231    1.000
    N30      N        0.77810    0.37489    0.69293    1.000
    O71      O        0.12902    0.50473    0.60610    1.000
    O72      O        0.05441    0.48212    0.63714    1.000
    O73      O        0.43937    0.38312    0.81564    1.000
    O74      O        0.54110    0.34050    0.83546    1.000
    O75      O        0.90775    0.38101    0.63191    1.000
    H295     H        0.89570    0.42130    0.62450    1.000
    C393     C        0.10740    0.95030    0.67215    1.000
    H296     H        0.07200    0.97410    0.68230    1.000
    C394     C        0.10090    0.87284    0.66857    1.000
    H297     H        0.06170    0.84510    0.67630    1.000
    C395     C        0.14952    0.83518    0.65417    1.000
    C396     C        0.20930    0.87974    0.64551    1.000
    H298     H        0.24860    0.85620    0.63670    1.000
    C397     C        0.21204    0.95596    0.64956    1.000
    H299     H        0.25300    0.98440    0.64300    1.000
    C398     C        0.13976    0.75427    0.64769    1.000
    C399     C        0.10790    0.70096    0.66256    1.000
    H300     H        0.09480    0.71560    0.67790    1.000
    C400     C        0.09510    0.62677    0.65536    1.000
    H301     H        0.07310    0.59100    0.66580    1.000
    C401     C        0.11357    0.60346    0.63314    1.000
    C402     C        0.14810    0.65551    0.61885    1.000
    H302     H        0.16220    0.64050    0.60370    1.000
    C403     C        0.16260    0.72887    0.62602    1.000
    H303     H        0.18880    0.76300    0.61600    1.000
    C404     C        0.09770    0.52358    0.62488    1.000
    C405     C        0.79710    0.33010    0.71026    1.000
    H304     H        0.84230    0.30010    0.70880    1.000
    C406     C        0.75510    0.32390    0.73075    1.000
    H305     H        0.77130    0.29010    0.74270    1.000
    C407     C        0.68942    0.36756    0.73348    1.000
    C408     C        0.66430    0.40940    0.71367    1.000
    H306     H        0.61670    0.43560    0.71390    1.000
    C409     C        0.70950    0.41140    0.69443    1.000
    H307     H        0.69220    0.43980    0.68140    1.000
    C410     C        0.64286    0.36523    0.75489    1.000
    C411     C        0.67800    0.37080    0.77664    1.000
    H308     H        0.73200    0.37600    0.77770    1.000
    C412     C        0.63390    0.36875    0.79643    1.000
    H309     H        0.65810    0.37160    0.81110    1.000
    C413     C        0.55485    0.36259    0.79527    1.000
    C414     C        0.52027    0.35960    0.77392    1.000
    H310     H        0.46600    0.35730    0.77290    1.000
    C415     C        0.56365    0.35980    0.75385    1.000
    H311     H        0.53890    0.35610    0.73930    1.000
    C416     C        0.50762    0.36254    0.81697    1.000
    C417     C        0.80000    0.41710    0.71250    1.000
    H312     H        0.84530    0.44710    0.71180    1.000
    C418     C        0.75860    0.41660    0.73243    1.000
    H313     H        0.77360    0.44690    0.74530    1.000
    C419     C        0.67260    0.32930    0.71463    1.000
    H314     H        0.62930    0.29640    0.71440    1.000
    C420     C        0.71810    0.33700    0.69506    1.000
    H315     H        0.70150    0.31020    0.68170    1.000
    Co31     Co       0.34606    0.88414    0.16241    1.000
    Co32     Co       0.52318    0.87284    0.13001    1.000
    N31      N        0.65989    0.49357    0.16231    1.000
    N32      N        0.27810    0.87489    0.19293    1.000
    O76      O        0.62902    0.00473    0.10610    1.000
    O77      O        0.55441    0.98212    0.13714    1.000
    O78      O        0.93937    0.88312    0.31564    1.000
    O79      O        0.04110    0.84050    0.33546    1.000
    O80      O        0.40775    0.88101    0.13191    1.000
    H316     H        0.39570    0.92130    0.12450    1.000
    C421     C        0.60740    0.45030    0.17215    1.000
    H317     H        0.57200    0.47410    0.18230    1.000
    C422     C        0.60090    0.37284    0.16857    1.000
    H318     H        0.56170    0.34510    0.17630    1.000
    C423     C        0.64952    0.33518    0.15417    1.000
    C424     C        0.70930    0.37974    0.14551    1.000
    H319     H        0.74860    0.35620    0.13670    1.000
    C425     C        0.71204    0.45596    0.14956    1.000
    H320     H        0.75300    0.48440    0.14300    1.000
    C426     C        0.63976    0.25427    0.14769    1.000
    C427     C        0.60790    0.20096    0.16256    1.000
    H321     H        0.59480    0.21560    0.17790    1.000
    C428     C        0.59510    0.12677    0.15536    1.000
    H322     H        0.57310    0.09100    0.16580    1.000
    C429     C        0.61357    0.10346    0.13314    1.000
    C430     C        0.64810    0.15551    0.11885    1.000
    H323     H        0.66220    0.14050    0.10370    1.000
    C431     C        0.66260    0.22887    0.12602    1.000
    H324     H        0.68880    0.26300    0.11600    1.000
    C432     C        0.59770    0.02358    0.12488    1.000
    C433     C        0.29710    0.83010    0.21026    1.000
    H325     H        0.34230    0.80010    0.20880    1.000
    C434     C        0.25510    0.82390    0.23075    1.000
    H326     H        0.27130    0.79010    0.24270    1.000
    C435     C        0.18942    0.86756    0.23348    1.000
    C436     C        0.16430    0.90940    0.21367    1.000
    H327     H        0.11670    0.93560    0.21390    1.000
    C437     C        0.20950    0.91140    0.19443    1.000
    H328     H        0.19220    0.93980    0.18140    1.000
    C438     C        0.14286    0.86523    0.25489    1.000
    C439     C        0.17800    0.87080    0.27664    1.000
    H329     H        0.23200    0.87600    0.27770    1.000
    C440     C        0.13390    0.86875    0.29643    1.000
    H330     H        0.15810    0.87160    0.31110    1.000
    C441     C        0.05485    0.86259    0.29527    1.000
    C442     C        0.02027    0.85960    0.27392    1.000
    H331     H        0.96600    0.85730    0.27290    1.000
    C443     C        0.06365    0.85980    0.25385    1.000
    H332     H        0.03890    0.85610    0.23930    1.000
    C444     C        0.00762    0.86254    0.31697    1.000
    C445     C        0.30000    0.91710    0.21250    1.000
    H333     H        0.34530    0.94710    0.21180    1.000
    C446     C        0.25860    0.91660    0.23243    1.000
    H334     H        0.27360    0.94690    0.24530    1.000
    C447     C        0.17260    0.82930    0.21463    1.000
    H335     H        0.12930    0.79640    0.21440    1.000
    C448     C        0.21810    0.83700    0.19506    1.000
    H336     H        0.20150    0.81020    0.18170    1.000
    O81      O        0.00000    0.25000    0.62500    1.000
    O82      O        0.50000    0.75000    0.12500    1.000
    O83      O        0.50000    0.25000    0.87500    1.000
    O84      O        0.00000    0.75000    0.37500    1.000
