# CIF file generated by openbabel 3.1.0, see https://openbabel.org
data_I
_chemical_name_common 'image0'
_cell_length_a 6.621
_cell_length_b 11.7941
_cell_length_c 12.2064
_cell_angle_alpha 90.846
_cell_angle_beta 100.577
_cell_angle_gamma 102.446
_space_group_name_H-M_alt 'P 1'
_space_group_name_Hall 'P 1'
loop_
    _symmetry_equiv_pos_as_xyz
    x,y,z
loop_
    _atom_site_label
    _atom_site_type_symbol
    _atom_site_fract_x
    _atom_site_fract_y
    _atom_site_fract_z
    _atom_site_occupancy
    Nd1      Nd       0.34661    0.42056    0.12960    1.000
    Nd2      Nd       0.73274    0.86706    0.44785    1.000
    S1       S        0.15990    0.88028    0.35798    1.000
    S2       S        0.53310    0.65708    0.27418    1.000
    S3       S        0.76270    0.35265    0.07308    1.000
    S4       S        0.26410    0.24731    0.31931    1.000
    O1       O        0.97630    0.41610    0.12230    1.000
    O2       O        0.64430    0.43530    0.01140    1.000
    O3       O        0.35250    0.37510    0.32660    1.000
    O4       O        0.63940    0.31190    0.15990    1.000
    O5       O        0.30910    0.60120    0.23490    1.000
    O6       O        0.65140    0.58550    0.22130    1.000
    O7       O        0.19730    0.21250    0.19990    1.000
    O8       O        0.37380    0.88380    0.41960    1.000
    O9       O        0.58620    0.78050    0.24690    1.000
    O10      O        0.08410    0.97770    0.41010    1.000
    O11      O        0.58960    0.65650    0.39840    1.000
    O12      O        0.42350    0.18710    0.38010    1.000
    O13      O        0.00990    0.77600    0.38160    1.000
    O14      O        0.08760    0.22030    0.38110    1.000
    O15      O        0.15530    0.89510    0.24080    1.000
    O16      O        0.77000    0.25630    0.99830    1.000
    Nd3      Nd       0.65339    0.57944    0.87040    1.000
    Nd4      Nd       0.26726    0.13294    0.55215    1.000
    S5       S        0.84010    0.11972    0.64202    1.000
    S6       S        0.46690    0.34292    0.72582    1.000
    S7       S        0.23730    0.64735    0.92692    1.000
    S8       S        0.73590    0.75269    0.68069    1.000
    O17      O        0.02370    0.58390    0.87770    1.000
    O18      O        0.35570    0.56470    0.98860    1.000
    O19      O        0.64750    0.62490    0.67340    1.000
    O20      O        0.36060    0.68810    0.84010    1.000
    O21      O        0.69090    0.39880    0.76510    1.000
    O22      O        0.34860    0.41450    0.77870    1.000
    O23      O        0.80270    0.78750    0.80010    1.000
    O24      O        0.62620    0.11620    0.58040    1.000
    O25      O        0.41380    0.21950    0.75310    1.000
    O26      O        0.91590    0.02230    0.58990    1.000
    O27      O        0.41040    0.34350    0.60160    1.000
    O28      O        0.57650    0.81290    0.61990    1.000
    O29      O        0.99010    0.22400    0.61840    1.000
    O30      O        0.91240    0.77970    0.61890    1.000
    O31      O        0.84470    0.10490    0.75920    1.000
    O32      O        0.23000    0.74370    0.00170    1.000
