# CIF file generated by openbabel 3.1.0, see https://openbabel.org
data_I
_chemical_name_common 'RAXROX_charged'
_cell_length_a 10.562
_cell_length_b 11.476
_cell_length_c 15.663
_cell_angle_alpha 90
_cell_angle_beta 90
_cell_angle_gamma 93.57
_space_group_name_H-M_alt 'P 1'
_space_group_name_Hall 'P 1'
loop_
    _symmetry_equiv_pos_as_xyz
    x,y,z
loop_
    _atom_site_label
    _atom_site_type_symbol
    _atom_site_fract_x
    _atom_site_fract_y
    _atom_site_fract_z
    _atom_site_occupancy
    Cu1      Cu       0.00319    0.90431    0.93752    1.000
    Cu2      Cu       0.59012    0.45054    0.94377    1.000
    Cu3      Cu       0.49681    0.59569    0.43752    1.000
    Cu4      Cu       0.90988    0.04946    0.44377    1.000
    Cu5      Cu       0.99681    0.09569    0.06248    1.000
    Cu6      Cu       0.40988    0.54946    0.05623    1.000
    Cu7      Cu       0.50319    0.40431    0.56248    1.000
    Cu8      Cu       0.09012    0.95054    0.55623    1.000
    B1       B        0.84620    0.46090    0.83130    1.000
    B2       B        0.65380    0.03910    0.33130    1.000
    B3       B        0.15380    0.53910    0.16870    1.000
    B4       B        0.34620    0.96090    0.66870    1.000
    H1       H        0.91500    0.46000    0.79280    1.000
    H2       H        0.71500    0.77560    0.96260    1.000
    H3       H        0.99200    0.66930    0.83570    1.000
    H4       H        0.46500    0.41800    0.75500    1.000
    H5       H        0.78360    0.41190    0.65190    1.000
    H6       H        0.72800    0.24710    0.06620    1.000
    H7       H        0.01100    0.28400    0.90400    1.000
    H8       H        0.58500    0.04000    0.29280    1.000
    H9       H        0.78500    0.72440    0.46260    1.000
    H10      H        0.50800    0.83070    0.33570    1.000
    H11      H        0.03500    0.08200    0.25500    1.000
    H12      H        0.71640    0.08810    0.15190    1.000
    H13      H        0.77200    0.25290    0.56620    1.000
    H14      H        0.48900    0.21600    0.40400    1.000
    H15      H        0.08500    0.54000    0.20720    1.000
    H16      H        0.28500    0.22440    0.03740    1.000
    H17      H        0.00800    0.33070    0.16430    1.000
    H18      H        0.53500    0.58200    0.24500    1.000
    H19      H        0.21640    0.58810    0.34810    1.000
    H20      H        0.27200    0.75290    0.93380    1.000
    H21      H        0.98900    0.71600    0.09600    1.000
    H22      H        0.41500    0.96000    0.70720    1.000
    H23      H        0.21500    0.27560    0.53740    1.000
    H24      H        0.49200    0.16930    0.66430    1.000
    H25      H        0.96500    0.91800    0.74500    1.000
    H26      H        0.28360    0.91190    0.84810    1.000
    H27      H        0.22800    0.74710    0.43380    1.000
    H28      H        0.51100    0.78400    0.59600    1.000
    C1       C        0.77640    0.72290    0.93970    1.000
    C2       C        0.92690    0.67320    0.86270    1.000
    C3       C        0.52760    0.41370    0.75310    1.000
    C4       C        0.70820    0.42430    0.69640    1.000
    C5       C        0.76790    0.27390    0.01130    1.000
    C6       C        0.92230    0.29050    0.92520    1.000
    C7       C        0.72360    0.77710    0.43970    1.000
    C8       C        0.57310    0.82680    0.36270    1.000
    C9       C        0.97240    0.08630    0.25310    1.000
    C10      C        0.79180    0.07570    0.19640    1.000
    C11      C        0.73210    0.22610    0.51130    1.000
    C12      C        0.57770    0.20950    0.42520    1.000
    C13      C        0.22360    0.27710    0.06030    1.000
    C14      C        0.07310    0.32680    0.13730    1.000
    C15      C        0.47240    0.58630    0.24690    1.000
    C16      C        0.29180    0.57570    0.30360    1.000
    C17      C        0.23210    0.72610    0.98870    1.000
    C18      C        0.07770    0.70950    0.07480    1.000
    C19      C        0.27640    0.22290    0.56030    1.000
    C20      C        0.42690    0.17320    0.63730    1.000
    C21      C        0.02760    0.91370    0.74690    1.000
    C22      C        0.20820    0.92430    0.80360    1.000
    C23      C        0.26790    0.77390    0.48870    1.000
    C24      C        0.42230    0.79050    0.57480    1.000
    N1       N        0.84530    0.58260    0.87040    1.000
    N2       N        0.74810    0.61330    0.92070    1.000
    N3       N        0.88990    0.76470    0.90570    1.000
    N4       N        0.72380    0.43710    0.77850    1.000
    N5       N        0.60650    0.43110    0.81610    1.000
    N6       N        0.58480    0.40780    0.67740    1.000
    N7       N        0.84230    0.36960    0.90360    1.000
    N8       N        0.74280    0.35980    0.95960    1.000
    N9       N        0.87930    0.22790    0.99250    1.000
    N10      N        0.65470    0.91740    0.37040    1.000
    N11      N        0.75190    0.88670    0.42070    1.000
    N12      N        0.61010    0.73530    0.40570    1.000
    N13      N        0.77620    0.06290    0.27850    1.000
    N14      N        0.89350    0.06890    0.31610    1.000
    N15      N        0.91520    0.09220    0.17740    1.000
    N16      N        0.65770    0.13040    0.40360    1.000
    N17      N        0.75720    0.14020    0.45960    1.000
    N18      N        0.62070    0.27210    0.49250    1.000
    N19      N        0.15470    0.41740    0.12960    1.000
    N20      N        0.25190    0.38670    0.07930    1.000
    N21      N        0.11010    0.23530    0.09430    1.000
    N22      N        0.27620    0.56290    0.22150    1.000
    N23      N        0.39350    0.56890    0.18390    1.000
    N24      N        0.41520    0.59220    0.32260    1.000
    N25      N        0.15770    0.63040    0.09640    1.000
    N26      N        0.25720    0.64020    0.04040    1.000
    N27      N        0.12070    0.77210    0.00750    1.000
    N28      N        0.34530    0.08260    0.62960    1.000
    N29      N        0.24810    0.11330    0.57930    1.000
    N30      N        0.38990    0.26470    0.59430    1.000
    N31      N        0.22380    0.93710    0.72150    1.000
    N32      N        0.10650    0.93110    0.68390    1.000
    N33      N        0.08480    0.90780    0.82260    1.000
    N34      N        0.34230    0.86960    0.59640    1.000
    N35      N        0.24280    0.85980    0.54040    1.000
    N36      N        0.37930    0.72790    0.50750    1.000
    O1       O        0.89340    0.95730    0.02750    1.000
    O2       O        0.43710    0.53410    0.93450    1.000
    O3       O        0.60660    0.54270    0.52750    1.000
    O4       O        0.06290    0.96590    0.43450    1.000
    O5       O        0.10660    0.04270    0.97250    1.000
    O6       O        0.56290    0.46590    0.06550    1.000
    O7       O        0.39340    0.45730    0.47250    1.000
    O8       O        0.93710    0.03410    0.56550    1.000
    Cl1      Cl       0.20730    0.21070    0.81880    1.000
    Cl2      Cl       0.29270    0.28930    0.31880    1.000
    Cl3      Cl       0.79270    0.78930    0.18120    1.000
    Cl4      Cl       0.70730    0.71070    0.68120    1.000
