# CIF file generated by openbabel 3.1.0, see https://openbabel.org
data_I
_chemical_name_common 'image0'
_cell_length_a 9.81
_cell_length_b 12.753
_cell_length_c 10.917
_cell_angle_alpha 90
_cell_angle_beta 100.63
_cell_angle_gamma 90
_space_group_name_H-M_alt 'P 1'
_space_group_name_Hall 'P 1'
loop_
    _symmetry_equiv_pos_as_xyz
    x,y,z
loop_
    _atom_site_label
    _atom_site_type_symbol
    _atom_site_fract_x
    _atom_site_fract_y
    _atom_site_fract_z
    _atom_site_occupancy
    C1       C        0.13600    0.51480    0.67750    1.000
    H1       H        0.13260    0.52380    0.76140    1.000
    N1       N        0.13950    0.41680    0.63260    1.000
    C2       C        0.14580    0.40440    0.51410    1.000
    H2       H        0.14680    0.33680    0.48220    1.000
    O1       O        0.26650    0.69260    0.35710    1.000
    N2       N        0.64120    0.42410    0.64600    1.000
    C3       C        0.52990    0.48420    0.60860    1.000
    H3       H        0.44740    0.46650    0.63400    1.000
    O2       O        0.01830    0.37510    0.85570    1.000
    O3       O        0.81200    0.31640    0.87750    1.000
    N3       N        0.61120    0.14370    0.85330    1.000
    Co1      Co       0.37664    0.78334    0.24877    1.000
    Co2      Co       0.87266    0.78184    0.25041    1.000
    O4       O        0.76860    0.68850    0.35640    1.000
    O5       O        0.47880    0.86920    0.13390    1.000
    O6       O        0.04980    0.74580    0.37690    1.000
    C4       C        0.15360    0.68220    0.39790    1.000
    C5       C        0.65870    0.68290    0.40440    1.000
    O7       O        0.55460    0.74870    0.37800    1.000
    C6       C        0.59910    0.97000    0.00880    1.000
    C7       C        0.65480    0.59650    0.49260    1.000
    C8       C        0.14780    0.59020    0.47890    1.000
    O8       O        0.69430    0.82670    0.12590    1.000
    C9       C        0.48140    0.02830    0.96290    1.000
    H4       H        0.39690    0.01010    0.98400    1.000
    C10      C        0.72190    0.99800    0.97330    1.000
    H5       H        0.80210    0.95920    0.00000    1.000
    N4       N        0.88490    0.64740    0.13560    1.000
    C11      C        0.72400    0.08510    0.89710    1.000
    H6       H        0.80790    0.10400    0.87510    1.000
    C12      C        0.89000    0.54780    0.17940    1.000
    H7       H        0.88990    0.53730    0.26370    1.000
    C13      C        0.89150    0.57460    0.93150    1.000
    H8       H        0.89330    0.58580    0.84760    1.000
    C14      C        0.13720    0.60220    0.60370    1.000
    H9       H        0.13100    0.66880    0.63690    1.000
    C15      C        0.88490    0.65830    0.01130    1.000
    H10      H        0.88020    0.72570    0.97820    1.000
    C16      C        0.15100    0.48940    0.43480    1.000
    H11      H        0.15660    0.47790    0.35180    1.000
    C17      C        0.77020    0.53530    0.53470    1.000
    H12      H        0.85470    0.55080    0.51180    1.000
    C18      C        0.75830    0.44990    0.61220    1.000
    H13      H        0.83670    0.40970    0.64100    1.000
    C19      C        0.89530    0.46040    0.10370    1.000
    H14      H        0.89880    0.39350    0.13790    1.000
    C20      C        0.89540    0.47310    0.97990    1.000
    C21      C        0.48920    0.11290    0.88660    1.000
    H15      H        0.40880    0.15070    0.85650    1.000
    C22      C        0.53140    0.57170    0.53370    1.000
    H16      H        0.45260    0.61300    0.51130    1.000
    C23      C        0.90810    0.37680    0.89460    1.000
    C24      C        0.59140    0.87840    0.10040    1.000
    C25      C        0.86400    0.01480    0.32250    1.000
    H17      H        0.86740    0.02380    0.23860    1.000
    N5       N        0.86050    0.91680    0.36740    1.000
    C26      C        0.85420    0.90440    0.48590    1.000
    H18      H        0.85320    0.83680    0.51780    1.000
    O9       O        0.73350    0.19260    0.64290    1.000
    N6       N        0.35880    0.92410    0.35400    1.000
    C27      C        0.47010    0.98420    0.39140    1.000
    H19      H        0.55260    0.96650    0.36600    1.000
    O10      O        0.98170    0.87510    0.14430    1.000
    O11      O        0.18800    0.81640    0.12250    1.000
    N7       N        0.38880    0.64370    0.14670    1.000
    Co3      Co       0.62336    0.28334    0.75123    1.000
    Co4      Co       0.12734    0.28184    0.74959    1.000
    O12      O        0.23140    0.18850    0.64360    1.000
    O13      O        0.52120    0.36920    0.86610    1.000
    O14      O        0.95020    0.24580    0.62310    1.000
    C28      C        0.84640    0.18220    0.60210    1.000
    C29      C        0.34130    0.18290    0.59560    1.000
    O15      O        0.44540    0.24870    0.62200    1.000
    C30      C        0.40090    0.47000    0.99120    1.000
    C31      C        0.34520    0.09650    0.50740    1.000
    C32      C        0.85220    0.09020    0.52110    1.000
    O16      O        0.30570    0.32670    0.87410    1.000
    C33      C        0.51860    0.52830    0.03710    1.000
    H20      H        0.60310    0.51010    0.01600    1.000
    C34      C        0.27810    0.49800    0.02670    1.000
    H21      H        0.19790    0.45920    0.00000    1.000
    N8       N        0.11510    0.14740    0.86440    1.000
    C35      C        0.27600    0.58510    0.10290    1.000
    H22      H        0.19210    0.60400    0.12490    1.000
    C36      C        0.11000    0.04780    0.82060    1.000
    H23      H        0.11010    0.03730    0.73630    1.000
    C37      C        0.10850    0.07460    0.06850    1.000
    H24      H        0.10670    0.08580    0.15240    1.000
    C38      C        0.86280    0.10220    0.39630    1.000
    H25      H        0.86900    0.16880    0.36310    1.000
    C39      C        0.11510    0.15830    0.98870    1.000
    H26      H        0.11980    0.22570    0.02180    1.000
    C40      C        0.84900    0.98940    0.56520    1.000
    H27      H        0.84340    0.97790    0.64820    1.000
    C41      C        0.22980    0.03530    0.46530    1.000
    H28      H        0.14530    0.05080    0.48820    1.000
    C42      C        0.24170    0.94990    0.38780    1.000
    H29      H        0.16330    0.90970    0.35900    1.000
    C43      C        0.10470    0.96040    0.89630    1.000
    H30      H        0.10120    0.89350    0.86210    1.000
    C44      C        0.10460    0.97310    0.02010    1.000
    C45      C        0.51080    0.61290    0.11340    1.000
    H31      H        0.59120    0.65070    0.14350    1.000
    C46      C        0.46860    0.07170    0.46630    1.000
    H32      H        0.54740    0.11300    0.48870    1.000
    C47      C        0.09190    0.87680    0.10540    1.000
    C48      C        0.40860    0.37840    0.89960    1.000
