# CIF file generated by openbabel 3.1.0, see https://openbabel.org
data_I
_chemical_name_common 'image0'
_cell_length_a 21.296
_cell_length_b 9.382
_cell_length_c 18.803
_cell_angle_alpha 90
_cell_angle_beta 90
_cell_angle_gamma 90
_space_group_name_H-M_alt 'P 1'
_space_group_name_Hall 'P 1'
loop_
    _symmetry_equiv_pos_as_xyz
    x,y,z
loop_
    _atom_site_label
    _atom_site_type_symbol
    _atom_site_fract_x
    _atom_site_fract_y
    _atom_site_fract_z
    _atom_site_occupancy
    Cu1      Cu       0.88791    0.01883    0.88200    1.000
    O1       O        0.90320    0.49600    0.02130    1.000
    N1       N        0.95100    0.86700    0.91520    1.000
    C1       C        0.97670    0.67870    0.99460    1.000
    C2       C        0.93380    0.76600    0.96110    1.000
    H1       H        0.89130    0.75380    0.97090    1.000
    C3       C        0.01330    0.88160    0.90110    1.000
    H2       H        0.02590    0.95120    0.86890    1.000
    C4       C        0.05710    0.79990    0.93170    1.000
    H3       H        0.09900    0.81240    0.91960    1.000
    C5       C        0.04090    0.69790    0.98070    1.000
    H4       H        0.07130    0.64360    0.00370    1.000
    C6       C        0.95280    0.55830    0.03740    1.000
    O2       O        0.92470    0.45010    0.30060    1.000
    N2       N        0.05060    0.82140    0.40030    1.000
    C7       C        0.99060    0.62530    0.35460    1.000
    C8       C        0.03720    0.72150    0.34960    1.000
    H5       H        0.06210    0.71980    0.30900    1.000
    C9       C        0.01340    0.81650    0.45770    1.000
    H6       H        0.02100    0.88270    0.49350    1.000
    C10      C        0.96580    0.72320    0.46810    1.000
    H7       H        0.94320    0.72230    0.51040    1.000
    C11      C        0.95220    0.63230    0.41530    1.000
    H8       H        0.91720    0.57350    0.41880    1.000
    C12      C        0.97560    0.51190    0.30030    1.000
    N3       N        0.98360    0.52070    0.09700    1.000
    H9       H        0.01670    0.56710    0.10900    1.000
    N4       N        0.01880    0.48120    0.25270    1.000
    H10      H        0.05340    0.52860    0.25270    1.000
    C13      C        0.96200    0.40270    0.14210    1.000
    H11      H        0.95480    0.31930    0.11280    1.000
    H12      H        0.92250    0.42860    0.16430    1.000
    C14      C        0.00970    0.36710    0.19920    1.000
    H13      H        0.99630    0.28100    0.22340    1.000
    H14      H        0.04970    0.34720    0.17660    1.000
    O3       O        0.67160    0.46210    0.96950    1.000
    N5       N        0.82050    0.16710    0.85950    1.000
    C15      C        0.74890    0.33890    0.90270    1.000
    C16      C        0.80320    0.26220    0.90910    1.000
    H15      H        0.82880    0.27630    0.94860    1.000
    C17      C        0.78220    0.14730    0.80210    1.000
    H16      H        0.79320    0.07900    0.76850    1.000
    C18      C        0.72830    0.22370    0.79210    1.000
    H17      H        0.70460    0.21330    0.75090    1.000
    C19      C        0.71020    0.31690    0.84520    1.000
    H18      H        0.67200    0.36450    0.84200    1.000
    C20      C        0.72820    0.43360    0.96130    1.000
    O4       O        0.66750    0.52220    0.22880    1.000
    N6       N        0.67940    0.86720    0.36910    1.000
    C21      C        0.72600    0.68400    0.29900    1.000
    C22      C        0.67570    0.76730    0.31770    1.000
    H19      H        0.63780    0.75440    0.29410    1.000
    C23      C        0.73390    0.87700    0.40680    1.000
    H20      H        0.73690    0.94180    0.44400    1.000
    C24      C        0.78450    0.79240    0.39040    1.000
    H21      H        0.82120    0.80150    0.41680    1.000
    C25      C        0.78230    0.69520    0.33640    1.000
    H22      H        0.81690    0.63900    0.32510    1.000
    C26      C        0.71720    0.58510    0.23720    1.000
    N7       N        0.77300    0.49390    0.00330    1.000
    H23      H        0.81170    0.48280    0.99130    1.000
    N8       N        0.76780    0.56630    0.19590    1.000
    H24      H        0.80180    0.60890    0.20850    1.000
    C27      C        0.75980    0.57520    0.06660    1.000
    H25      H        0.78720    0.65770    0.06880    1.000
    H26      H        0.71670    0.60850    0.06570    1.000
    C28      C        0.77040    0.48070    0.13190    1.000
    H27      H        0.81100    0.43440    0.12850    1.000
    H28      H        0.73840    0.40720    0.13380    1.000
    Cu2      Cu       0.11209    0.98117    0.38200    1.000
    O5       O        0.09680    0.50400    0.52130    1.000
    N9       N        0.04900    0.13300    0.41520    1.000
    C29      C        0.02330    0.32130    0.49460    1.000
    C30      C        0.06620    0.23400    0.46110    1.000
    H29      H        0.10870    0.24620    0.47090    1.000
    C31      C        0.98670    0.11840    0.40110    1.000
    H30      H        0.97410    0.04880    0.36890    1.000
    C32      C        0.94290    0.20010    0.43170    1.000
    H31      H        0.90100    0.18760    0.41960    1.000
    C33      C        0.95910    0.30210    0.48070    1.000
    H32      H        0.92870    0.35640    0.50370    1.000
    C34      C        0.04720    0.44170    0.53740    1.000
    O6       O        0.07530    0.54990    0.80060    1.000
    N10      N        0.94940    0.17860    0.90030    1.000
    C35      C        0.00940    0.37470    0.85460    1.000
    C36      C        0.96280    0.27850    0.84960    1.000
    H33      H        0.93790    0.28020    0.80900    1.000
    C37      C        0.98660    0.18350    0.95770    1.000
    H34      H        0.97900    0.11730    0.99350    1.000
    C38      C        0.03420    0.27680    0.96810    1.000
    H35      H        0.05680    0.27770    0.01040    1.000
    C39      C        0.04780    0.36770    0.91530    1.000
    H36      H        0.08280    0.42650    0.91880    1.000
    C40      C        0.02440    0.48810    0.80030    1.000
    N11      N        0.01640    0.47930    0.59700    1.000
    H37      H        0.98330    0.43290    0.60900    1.000
    N12      N        0.98120    0.51880    0.75270    1.000
    H38      H        0.94660    0.47140    0.75270    1.000
    C41      C        0.03800    0.59730    0.64210    1.000
    H39      H        0.04520    0.68070    0.61280    1.000
    H40      H        0.07750    0.57140    0.66430    1.000
    C42      C        0.99030    0.63290    0.69920    1.000
    H41      H        0.00370    0.71900    0.72340    1.000
    H42      H        0.95030    0.65280    0.67660    1.000
    O7       O        0.32840    0.53790    0.46950    1.000
    N13      N        0.17950    0.83290    0.35950    1.000
    C43      C        0.25110    0.66110    0.40270    1.000
    C44      C        0.19680    0.73780    0.40910    1.000
    H43      H        0.17120    0.72370    0.44860    1.000
    C45      C        0.21780    0.85270    0.30210    1.000
    H44      H        0.20680    0.92100    0.26850    1.000
    C46      C        0.27170    0.77630    0.29210    1.000
    H45      H        0.29540    0.78670    0.25090    1.000
    C47      C        0.28980    0.68310    0.34520    1.000
    H46      H        0.32800    0.63550    0.34200    1.000
    C48      C        0.27180    0.56640    0.46130    1.000
    O8       O        0.33250    0.47780    0.72880    1.000
    N14      N        0.32060    0.13280    0.86910    1.000
    C49      C        0.27400    0.31600    0.79900    1.000
    C50      C        0.32430    0.23270    0.81770    1.000
    H47      H        0.36220    0.24560    0.79410    1.000
    C51      C        0.26610    0.12300    0.90680    1.000
    H48      H        0.26310    0.05820    0.94400    1.000
    C52      C        0.21550    0.20760    0.89040    1.000
    H49      H        0.17880    0.19850    0.91680    1.000
    C53      C        0.21770    0.30480    0.83640    1.000
    H50      H        0.18310    0.36100    0.82510    1.000
    C54      C        0.28280    0.41490    0.73720    1.000
    N15      N        0.22700    0.50610    0.50330    1.000
    H51      H        0.18830    0.51720    0.49130    1.000
    N16      N        0.23220    0.43370    0.69590    1.000
    H52      H        0.19820    0.39110    0.70850    1.000
    C55      C        0.24020    0.42480    0.56660    1.000
    H53      H        0.21280    0.34230    0.56880    1.000
    H54      H        0.28330    0.39150    0.56570    1.000
    C56      C        0.22960    0.51930    0.63190    1.000
    H55      H        0.18900    0.56560    0.62850    1.000
    H56      H        0.26160    0.59280    0.63380    1.000
    Cu3      Cu       0.38791    0.98117    0.88200    1.000
    O9       O        0.40320    0.50400    0.02130    1.000
    N17      N        0.45100    0.13300    0.91520    1.000
    C57      C        0.47670    0.32130    0.99460    1.000
    C58      C        0.43380    0.23400    0.96110    1.000
    H57      H        0.39130    0.24620    0.97090    1.000
    C59      C        0.51330    0.11840    0.90110    1.000
    H58      H        0.52590    0.04880    0.86890    1.000
    C60      C        0.55710    0.20010    0.93170    1.000
    H59      H        0.59900    0.18760    0.91960    1.000
    C61      C        0.54090    0.30210    0.98070    1.000
    H60      H        0.57130    0.35640    0.00370    1.000
    C62      C        0.45280    0.44170    0.03740    1.000
    O10      O        0.42470    0.54990    0.30060    1.000
    N18      N        0.55060    0.17860    0.40030    1.000
    C63      C        0.49060    0.37470    0.35460    1.000
    C64      C        0.53720    0.27850    0.34960    1.000
    H61      H        0.56210    0.28020    0.30900    1.000
    C65      C        0.51340    0.18350    0.45770    1.000
    H62      H        0.52100    0.11730    0.49350    1.000
    C66      C        0.46580    0.27680    0.46810    1.000
    H63      H        0.44320    0.27770    0.51040    1.000
    C67      C        0.45220    0.36770    0.41530    1.000
    H64      H        0.41720    0.42650    0.41880    1.000
    C68      C        0.47560    0.48810    0.30030    1.000
    N19      N        0.48360    0.47930    0.09700    1.000
    H65      H        0.51670    0.43290    0.10900    1.000
    N20      N        0.51880    0.51880    0.25270    1.000
    H66      H        0.55340    0.47140    0.25270    1.000
    C69      C        0.46200    0.59730    0.14210    1.000
    H67      H        0.45480    0.68070    0.11280    1.000
    H68      H        0.42250    0.57140    0.16430    1.000
    C70      C        0.50970    0.63290    0.19920    1.000
    H69      H        0.49630    0.71900    0.22340    1.000
    H70      H        0.54970    0.65280    0.17660    1.000
    O11      O        0.17160    0.53790    0.96950    1.000
    N21      N        0.32050    0.83290    0.85950    1.000
    C71      C        0.24890    0.66110    0.90270    1.000
    C72      C        0.30320    0.73780    0.90910    1.000
    H71      H        0.32880    0.72370    0.94860    1.000
    C73      C        0.28220    0.85270    0.80210    1.000
    H72      H        0.29320    0.92100    0.76850    1.000
    C74      C        0.22830    0.77630    0.79210    1.000
    H73      H        0.20460    0.78670    0.75090    1.000
    C75      C        0.21020    0.68310    0.84520    1.000
    H74      H        0.17200    0.63550    0.84200    1.000
    C76      C        0.22820    0.56640    0.96130    1.000
    O12      O        0.16750    0.47780    0.22880    1.000
    N22      N        0.17940    0.13280    0.36910    1.000
    C77      C        0.22600    0.31600    0.29900    1.000
    C78      C        0.17570    0.23270    0.31770    1.000
    H75      H        0.13780    0.24560    0.29410    1.000
    C79      C        0.23390    0.12300    0.40680    1.000
    H76      H        0.23690    0.05820    0.44400    1.000
    C80      C        0.28450    0.20760    0.39040    1.000
    H77      H        0.32120    0.19850    0.41680    1.000
    C81      C        0.28230    0.30480    0.33640    1.000
    H78      H        0.31690    0.36100    0.32510    1.000
    C82      C        0.21720    0.41490    0.23720    1.000
    N23      N        0.27300    0.50610    0.00330    1.000
    H79      H        0.31170    0.51720    0.99130    1.000
    N24      N        0.26780    0.43370    0.19590    1.000
    H80      H        0.30180    0.39110    0.20850    1.000
    C83      C        0.25980    0.42480    0.06660    1.000
    H81      H        0.28720    0.34230    0.06880    1.000
    H82      H        0.21670    0.39150    0.06570    1.000
    C84      C        0.27040    0.51930    0.13190    1.000
    H83      H        0.31100    0.56560    0.12850    1.000
    H84      H        0.23840    0.59280    0.13380    1.000
    Cu4      Cu       0.61209    0.01883    0.38200    1.000
    O13      O        0.59680    0.49600    0.52130    1.000
    N25      N        0.54900    0.86700    0.41520    1.000
    C85      C        0.52330    0.67870    0.49460    1.000
    C86      C        0.56620    0.76600    0.46110    1.000
    H85      H        0.60870    0.75380    0.47090    1.000
    C87      C        0.48670    0.88160    0.40110    1.000
    H86      H        0.47410    0.95120    0.36890    1.000
    C88      C        0.44290    0.79990    0.43170    1.000
    H87      H        0.40100    0.81240    0.41960    1.000
    C89      C        0.45910    0.69790    0.48070    1.000
    H88      H        0.42870    0.64360    0.50370    1.000
    C90      C        0.54720    0.55830    0.53740    1.000
    O14      O        0.57530    0.45010    0.80060    1.000
    N26      N        0.44940    0.82140    0.90030    1.000
    C91      C        0.50940    0.62530    0.85460    1.000
    C92      C        0.46280    0.72150    0.84960    1.000
    H89      H        0.43790    0.71980    0.80900    1.000
    C93      C        0.48660    0.81650    0.95770    1.000
    H90      H        0.47900    0.88270    0.99350    1.000
    C94      C        0.53420    0.72320    0.96810    1.000
    H91      H        0.55680    0.72230    0.01040    1.000
    C95      C        0.54780    0.63230    0.91530    1.000
    H92      H        0.58280    0.57350    0.91880    1.000
    C96      C        0.52440    0.51190    0.80030    1.000
    N27      N        0.51640    0.52070    0.59700    1.000
    H93      H        0.48330    0.56710    0.60900    1.000
    N28      N        0.48120    0.48120    0.75270    1.000
    H94      H        0.44660    0.52860    0.75270    1.000
    C97      C        0.53800    0.40270    0.64210    1.000
    H95      H        0.54520    0.31930    0.61280    1.000
    H96      H        0.57750    0.42860    0.66430    1.000
    C98      C        0.49030    0.36710    0.69920    1.000
    H97      H        0.50370    0.28100    0.72340    1.000
    H98      H        0.45030    0.34720    0.67660    1.000
    O15      O        0.82840    0.46210    0.46950    1.000
    N29      N        0.67950    0.16710    0.35950    1.000
    C99      C        0.75110    0.33890    0.40270    1.000
    C100     C        0.69680    0.26220    0.40910    1.000
    H99      H        0.67120    0.27630    0.44860    1.000
    C101     C        0.71780    0.14730    0.30210    1.000
    H100     H        0.70680    0.07900    0.26850    1.000
    C102     C        0.77170    0.22370    0.29210    1.000
    H101     H        0.79540    0.21330    0.25090    1.000
    C103     C        0.78980    0.31690    0.34520    1.000
    H102     H        0.82800    0.36450    0.34200    1.000
    C104     C        0.77180    0.43360    0.46130    1.000
    O16      O        0.83250    0.52220    0.72880    1.000
    N30      N        0.82060    0.86720    0.86910    1.000
    C105     C        0.77400    0.68400    0.79900    1.000
    C106     C        0.82430    0.76730    0.81770    1.000
    H103     H        0.86220    0.75440    0.79410    1.000
    C107     C        0.76610    0.87700    0.90680    1.000
    H104     H        0.76310    0.94180    0.94400    1.000
    C108     C        0.71550    0.79240    0.89040    1.000
    H105     H        0.67880    0.80150    0.91680    1.000
    C109     C        0.71770    0.69520    0.83640    1.000
    H106     H        0.68310    0.63900    0.82510    1.000
    C110     C        0.78280    0.58510    0.73720    1.000
    N31      N        0.72700    0.49390    0.50330    1.000
    H107     H        0.68830    0.48280    0.49130    1.000
    N32      N        0.73220    0.56630    0.69590    1.000
    H108     H        0.69820    0.60890    0.70850    1.000
    C111     C        0.74020    0.57520    0.56660    1.000
    H109     H        0.71280    0.65770    0.56880    1.000
    H110     H        0.78330    0.60850    0.56570    1.000
    C112     C        0.72960    0.48070    0.63190    1.000
    H111     H        0.68900    0.43440    0.62850    1.000
    H112     H        0.76160    0.40720    0.63380    1.000
