# CIF file generated by openbabel 3.1.0, see https://openbabel.org
data_I
_chemical_name_common 'image0'
_cell_length_a 34.895
_cell_length_b 14.6553
_cell_length_c 31.393
_cell_angle_alpha 90
_cell_angle_beta 101.491
_cell_angle_gamma 90
_space_group_name_H-M_alt 'P 1'
_space_group_name_Hall 'P 1'
loop_
    _symmetry_equiv_pos_as_xyz
    x,y,z
loop_
    _atom_site_label
    _atom_site_type_symbol
    _atom_site_fract_x
    _atom_site_fract_y
    _atom_site_fract_z
    _atom_site_occupancy
    C1       C        0.24180    0.59000    0.30260    1.000
    C2       C        0.19410    0.57990    0.24370    1.000
    C3       C        0.20530    0.71330    0.27910    1.000
    C4       C        0.19680    0.81230    0.28000    1.000
    C5       C        0.16230    0.84630    0.25460    1.000
    H1       H        0.14390    0.80680    0.23890    1.000
    C6       C        0.15590    0.93840    0.25300    1.000
    H2       H        0.13300    0.96020    0.23560    1.000
    C7       C        0.21410    0.96660    0.30020    1.000
    H3       H        0.23200    0.00790    0.31540    1.000
    C8       C        0.22220    0.87440    0.30360    1.000
    H4       H        0.24490    0.85410    0.32190    1.000
    C9       C        0.27350    0.54610    0.33450    1.000
    C10      C        0.28450    0.45650    0.32760    1.000
    H5       H        0.27250    0.42460    0.30300    1.000
    C11      C        0.31330    0.41670    0.35780    1.000
    H6       H        0.32050    0.35690    0.35320    1.000
    C12      C        0.32110    0.54560    0.40020    1.000
    H7       H        0.33370    0.57570    0.42510    1.000
    C13      C        0.29240    0.59110    0.37130    1.000
    H8       H        0.28600    0.65110    0.37660    1.000
    C14      C        0.17110    0.52860    0.20680    1.000
    C15      C        0.14260    0.57360    0.17610    1.000
    H9       H        0.13850    0.63600    0.17820    1.000
    C16      C        0.12120    0.52410    0.14340    1.000
    H10      H        0.10230    0.55460    0.12340    1.000
    C17      C        0.15260    0.39190    0.16600    1.000
    H11      H        0.15650    0.32990    0.16210    1.000
    C18      C        0.17550    0.43590    0.20110    1.000
    H12      H        0.19380    0.40310    0.22080    1.000
    C19      C        0.51790    0.66340    0.44430    1.000
    C20      C        0.55210    0.79110    0.46650    1.000
    C21      C        0.56790    0.70570    0.41290    1.000
    C22      C        0.48420    0.60270    0.44490    1.000
    C23      C        0.46940    0.59110    0.48200    1.000
    H13      H        0.48070    0.62000    0.50790    1.000
    C24      C        0.43670    0.53380    0.47930    1.000
    H14      H        0.42630    0.52580    0.50410    1.000
    C25      C        0.43400    0.50560    0.40750    1.000
    H15      H        0.42170    0.47790    0.38170    1.000
    C26      C        0.46580    0.55960    0.40700    1.000
    H16      H        0.47510    0.56750    0.38150    1.000
    C27      C        0.59230    0.68760    0.38040    1.000
    C28      C        0.61230    0.75780    0.36430    1.000
    H17      H        0.61120    0.81710    0.37450    1.000
    C29      C        0.63320    0.73880    0.33400    1.000
    H18      H        0.64630    0.78640    0.32350    1.000
    C30      C        0.61790    0.58750    0.33380    1.000
    H19      H        0.62030    0.52860    0.32370    1.000
    C31      C        0.59570    0.60110    0.36440    1.000
    H20      H        0.58300    0.55220    0.37440    1.000
    C32      C        0.55770    0.87440    0.49330    1.000
    C33      C        0.53190    0.89600    0.52040    1.000
    H21      H        0.51010    0.85960    0.52080    1.000
    C34      C        0.53910    0.97250    0.54690    1.000
    H22      H        0.52190    0.98640    0.56510    1.000
    C35      C        0.59360    0.00720    0.51990    1.000
    H23      H        0.61440    0.04640    0.51900    1.000
    C36      C        0.58880    0.93200    0.49310    1.000
    H24      H        0.60640    0.92040    0.47500    1.000
    I1       I        0.12022    0.15173    0.19573    1.000
    I2       I        0.22737    0.23555    0.29022    1.000
    I3       I        0.02628    0.34748    0.12988    1.000
    I4       I        0.11951    0.25063    0.05567    1.000
    I5       I        0.35190    0.40435    0.51126    1.000
    I6       I        0.39850    0.26130    0.40293    1.000
    N1       N        0.22310    0.53950    0.26980    1.000
    N2       N        0.18340    0.66730    0.24690    1.000
    N3       N        0.23390    0.67890    0.30870    1.000
    N4       N        0.33150    0.45930    0.39350    1.000
    N5       N        0.12530    0.43490    0.13790    1.000
    N6       N        0.18070    0.99820    0.27510    1.000
    N7       N        0.53970    0.64450    0.41490    1.000
    N8       N        0.57420    0.78180    0.43680    1.000
    N9       N        0.52390    0.73320    0.47220    1.000
    N10      N        0.41970    0.49070    0.44340    1.000
    N11      N        0.63630    0.65460    0.31790    1.000
    N12      N        0.56990    0.02670    0.54730    1.000
    Zn1      Zn       0.16684    0.13635    0.26845    1.000
    Zn2      Zn       0.08379    0.36752    0.09200    1.000
    Zn3      Zn       0.37456    0.39960    0.43974    1.000
    C37      C        0.74180    0.09000    0.30260    1.000
    C38      C        0.69410    0.07990    0.24370    1.000
    C39      C        0.70530    0.21330    0.27910    1.000
    C40      C        0.69680    0.31230    0.28000    1.000
    C41      C        0.66230    0.34630    0.25460    1.000
    H25      H        0.64390    0.30680    0.23890    1.000
    C42      C        0.65590    0.43840    0.25300    1.000
    H26      H        0.63300    0.46020    0.23560    1.000
    C43      C        0.71410    0.46660    0.30020    1.000
    H27      H        0.73200    0.50790    0.31540    1.000
    C44      C        0.72220    0.37440    0.30360    1.000
    H28      H        0.74490    0.35410    0.32190    1.000
    C45      C        0.77350    0.04610    0.33450    1.000
    C46      C        0.78450    0.95650    0.32760    1.000
    H29      H        0.77250    0.92460    0.30300    1.000
    C47      C        0.81330    0.91670    0.35780    1.000
    H30      H        0.82050    0.85690    0.35320    1.000
    C48      C        0.82110    0.04560    0.40020    1.000
    H31      H        0.83370    0.07570    0.42510    1.000
    C49      C        0.79240    0.09110    0.37130    1.000
    H32      H        0.78600    0.15110    0.37660    1.000
    C50      C        0.67110    0.02860    0.20680    1.000
    C51      C        0.64260    0.07360    0.17610    1.000
    H33      H        0.63850    0.13600    0.17820    1.000
    C52      C        0.62120    0.02410    0.14340    1.000
    H34      H        0.60230    0.05460    0.12340    1.000
    C53      C        0.65260    0.89190    0.16600    1.000
    H35      H        0.65650    0.82990    0.16210    1.000
    C54      C        0.67550    0.93590    0.20110    1.000
    H36      H        0.69380    0.90310    0.22080    1.000
    C55      C        0.01790    0.16340    0.44430    1.000
    C56      C        0.05210    0.29110    0.46650    1.000
    C57      C        0.06790    0.20570    0.41290    1.000
    C58      C        0.98420    0.10270    0.44490    1.000
    C59      C        0.96940    0.09110    0.48200    1.000
    H37      H        0.98070    0.12000    0.50790    1.000
    C60      C        0.93670    0.03380    0.47930    1.000
    H38      H        0.92630    0.02580    0.50410    1.000
    C61      C        0.93400    0.00560    0.40750    1.000
    H39      H        0.92170    0.97790    0.38170    1.000
    C62      C        0.96580    0.05960    0.40700    1.000
    H40      H        0.97510    0.06750    0.38150    1.000
    C63      C        0.09230    0.18760    0.38040    1.000
    C64      C        0.11230    0.25780    0.36430    1.000
    H41      H        0.11120    0.31710    0.37450    1.000
    C65      C        0.13320    0.23880    0.33400    1.000
    H42      H        0.14630    0.28640    0.32350    1.000
    C66      C        0.11790    0.08750    0.33380    1.000
    H43      H        0.12030    0.02860    0.32370    1.000
    C67      C        0.09570    0.10110    0.36440    1.000
    H44      H        0.08300    0.05220    0.37440    1.000
    C68      C        0.05770    0.37440    0.49330    1.000
    C69      C        0.03190    0.39600    0.52040    1.000
    H45      H        0.01010    0.35960    0.52080    1.000
    C70      C        0.03910    0.47250    0.54690    1.000
    H46      H        0.02190    0.48640    0.56510    1.000
    C71      C        0.09360    0.50720    0.51990    1.000
    H47      H        0.11440    0.54640    0.51900    1.000
    C72      C        0.08880    0.43200    0.49310    1.000
    H48      H        0.10640    0.42040    0.47500    1.000
    I7       I        0.62022    0.65173    0.19573    1.000
    I8       I        0.72737    0.73555    0.29022    1.000
    I9       I        0.52628    0.84748    0.12988    1.000
    I10      I        0.61951    0.75063    0.05567    1.000
    I11      I        0.85190    0.90435    0.51126    1.000
    I12      I        0.89850    0.76130    0.40293    1.000
    N13      N        0.72310    0.03950    0.26980    1.000
    N14      N        0.68340    0.16730    0.24690    1.000
    N15      N        0.73390    0.17890    0.30870    1.000
    N16      N        0.83150    0.95930    0.39350    1.000
    N17      N        0.62530    0.93490    0.13790    1.000
    N18      N        0.68070    0.49820    0.27510    1.000
    N19      N        0.03970    0.14450    0.41490    1.000
    N20      N        0.07420    0.28180    0.43680    1.000
    N21      N        0.02390    0.23320    0.47220    1.000
    N22      N        0.91970    0.99070    0.44340    1.000
    N23      N        0.13630    0.15460    0.31790    1.000
    N24      N        0.06990    0.52670    0.54730    1.000
    Zn4      Zn       0.66684    0.63635    0.26845    1.000
    Zn5      Zn       0.58379    0.86752    0.09200    1.000
    Zn6      Zn       0.87456    0.89960    0.43974    1.000
    C73      C        0.24180    0.41000    0.80260    1.000
    C74      C        0.19410    0.42010    0.74370    1.000
    C75      C        0.20530    0.28670    0.77910    1.000
    C76      C        0.19680    0.18770    0.78000    1.000
    C77      C        0.16230    0.15370    0.75460    1.000
    H49      H        0.14390    0.19320    0.73890    1.000
    C78      C        0.15590    0.06160    0.75300    1.000
    H50      H        0.13300    0.03980    0.73560    1.000
    C79      C        0.21410    0.03340    0.80020    1.000
    H51      H        0.23200    0.99210    0.81540    1.000
    C80      C        0.22220    0.12560    0.80360    1.000
    H52      H        0.24490    0.14590    0.82190    1.000
    C81      C        0.27350    0.45390    0.83450    1.000
    C82      C        0.28450    0.54350    0.82760    1.000
    H53      H        0.27250    0.57540    0.80300    1.000
    C83      C        0.31330    0.58330    0.85780    1.000
    H54      H        0.32050    0.64310    0.85320    1.000
    C84      C        0.32110    0.45440    0.90020    1.000
    H55      H        0.33370    0.42430    0.92510    1.000
    C85      C        0.29240    0.40890    0.87130    1.000
    H56      H        0.28600    0.34890    0.87660    1.000
    C86      C        0.17110    0.47140    0.70680    1.000
    C87      C        0.14260    0.42640    0.67610    1.000
    H57      H        0.13850    0.36400    0.67820    1.000
    C88      C        0.12120    0.47590    0.64340    1.000
    H58      H        0.10230    0.44540    0.62340    1.000
    C89      C        0.15260    0.60810    0.66600    1.000
    H59      H        0.15650    0.67010    0.66210    1.000
    C90      C        0.17550    0.56410    0.70110    1.000
    H60      H        0.19380    0.59690    0.72080    1.000
    C91      C        0.51790    0.33660    0.94430    1.000
    C92      C        0.55210    0.20890    0.96650    1.000
    C93      C        0.56790    0.29430    0.91290    1.000
    C94      C        0.48420    0.39730    0.94490    1.000
    C95      C        0.46940    0.40890    0.98200    1.000
    H61      H        0.48070    0.38000    0.00790    1.000
    C96      C        0.43670    0.46620    0.97930    1.000
    H62      H        0.42630    0.47420    0.00410    1.000
    C97      C        0.43400    0.49440    0.90750    1.000
    H63      H        0.42170    0.52210    0.88170    1.000
    C98      C        0.46580    0.44040    0.90700    1.000
    H64      H        0.47510    0.43250    0.88150    1.000
    C99      C        0.59230    0.31240    0.88040    1.000
    C100     C        0.61230    0.24220    0.86430    1.000
    H65      H        0.61120    0.18290    0.87450    1.000
    C101     C        0.63320    0.26120    0.83400    1.000
    H66      H        0.64630    0.21360    0.82350    1.000
    C102     C        0.61790    0.41250    0.83380    1.000
    H67      H        0.62030    0.47140    0.82370    1.000
    C103     C        0.59570    0.39890    0.86440    1.000
    H68      H        0.58300    0.44780    0.87440    1.000
    C104     C        0.55770    0.12560    0.99330    1.000
    C105     C        0.53190    0.10400    0.02040    1.000
    H69      H        0.51010    0.14040    0.02080    1.000
    C106     C        0.53910    0.02750    0.04690    1.000
    H70      H        0.52190    0.01360    0.06510    1.000
    C107     C        0.59360    0.99280    0.01990    1.000
    H71      H        0.61440    0.95360    0.01900    1.000
    C108     C        0.58880    0.06800    0.99310    1.000
    H72      H        0.60640    0.07960    0.97500    1.000
    I13      I        0.12022    0.84827    0.69573    1.000
    I14      I        0.22737    0.76445    0.79022    1.000
    I15      I        0.02628    0.65252    0.62988    1.000
    I16      I        0.11951    0.74937    0.55567    1.000
    I17      I        0.35190    0.59565    0.01126    1.000
    I18      I        0.39850    0.73870    0.90293    1.000
    N25      N        0.22310    0.46050    0.76980    1.000
    N26      N        0.18340    0.33270    0.74690    1.000
    N27      N        0.23390    0.32110    0.80870    1.000
    N28      N        0.33150    0.54070    0.89350    1.000
    N29      N        0.12530    0.56510    0.63790    1.000
    N30      N        0.18070    0.00180    0.77510    1.000
    N31      N        0.53970    0.35550    0.91490    1.000
    N32      N        0.57420    0.21820    0.93680    1.000
    N33      N        0.52390    0.26680    0.97220    1.000
    N34      N        0.41970    0.50930    0.94340    1.000
    N35      N        0.63630    0.34540    0.81790    1.000
    N36      N        0.56990    0.97330    0.04730    1.000
    Zn7      Zn       0.16684    0.86365    0.76845    1.000
    Zn8      Zn       0.08379    0.63248    0.59200    1.000
    Zn9      Zn       0.37456    0.60040    0.93974    1.000
    C109     C        0.74180    0.91000    0.80260    1.000
    C110     C        0.69410    0.92010    0.74370    1.000
    C111     C        0.70530    0.78670    0.77910    1.000
    C112     C        0.69680    0.68770    0.78000    1.000
    C113     C        0.66230    0.65370    0.75460    1.000
    H73      H        0.64390    0.69320    0.73890    1.000
    C114     C        0.65590    0.56160    0.75300    1.000
    H74      H        0.63300    0.53980    0.73560    1.000
    C115     C        0.71410    0.53340    0.80020    1.000
    H75      H        0.73200    0.49210    0.81540    1.000
    C116     C        0.72220    0.62560    0.80360    1.000
    H76      H        0.74490    0.64590    0.82190    1.000
    C117     C        0.77350    0.95390    0.83450    1.000
    C118     C        0.78450    0.04350    0.82760    1.000
    H77      H        0.77250    0.07540    0.80300    1.000
    C119     C        0.81330    0.08330    0.85780    1.000
    H78      H        0.82050    0.14310    0.85320    1.000
    C120     C        0.82110    0.95440    0.90020    1.000
    H79      H        0.83370    0.92430    0.92510    1.000
    C121     C        0.79240    0.90890    0.87130    1.000
    H80      H        0.78600    0.84890    0.87660    1.000
    C122     C        0.67110    0.97140    0.70680    1.000
    C123     C        0.64260    0.92640    0.67610    1.000
    H81      H        0.63850    0.86400    0.67820    1.000
    C124     C        0.62120    0.97590    0.64340    1.000
    H82      H        0.60230    0.94540    0.62340    1.000
    C125     C        0.65260    0.10810    0.66600    1.000
    H83      H        0.65650    0.17010    0.66210    1.000
    C126     C        0.67550    0.06410    0.70110    1.000
    H84      H        0.69380    0.09690    0.72080    1.000
    C127     C        0.01790    0.83660    0.94430    1.000
    C128     C        0.05210    0.70890    0.96650    1.000
    C129     C        0.06790    0.79430    0.91290    1.000
    C130     C        0.98420    0.89730    0.94490    1.000
    C131     C        0.96940    0.90890    0.98200    1.000
    H85      H        0.98070    0.88000    0.00790    1.000
    C132     C        0.93670    0.96620    0.97930    1.000
    H86      H        0.92630    0.97420    0.00410    1.000
    C133     C        0.93400    0.99440    0.90750    1.000
    H87      H        0.92170    0.02210    0.88170    1.000
    C134     C        0.96580    0.94040    0.90700    1.000
    H88      H        0.97510    0.93250    0.88150    1.000
    C135     C        0.09230    0.81240    0.88040    1.000
    C136     C        0.11230    0.74220    0.86430    1.000
    H89      H        0.11120    0.68290    0.87450    1.000
    C137     C        0.13320    0.76120    0.83400    1.000
    H90      H        0.14630    0.71360    0.82350    1.000
    C138     C        0.11790    0.91250    0.83380    1.000
    H91      H        0.12030    0.97140    0.82370    1.000
    C139     C        0.09570    0.89890    0.86440    1.000
    H92      H        0.08300    0.94780    0.87440    1.000
    C140     C        0.05770    0.62560    0.99330    1.000
    C141     C        0.03190    0.60400    0.02040    1.000
    H93      H        0.01010    0.64040    0.02080    1.000
    C142     C        0.03910    0.52750    0.04690    1.000
    H94      H        0.02190    0.51360    0.06510    1.000
    C143     C        0.09360    0.49280    0.01990    1.000
    H95      H        0.11440    0.45360    0.01900    1.000
    C144     C        0.08880    0.56800    0.99310    1.000
    H96      H        0.10640    0.57960    0.97500    1.000
    I19      I        0.62022    0.34827    0.69573    1.000
    I20      I        0.72737    0.26445    0.79022    1.000
    I21      I        0.52628    0.15252    0.62988    1.000
    I22      I        0.61951    0.24937    0.55567    1.000
    I23      I        0.85190    0.09565    0.01126    1.000
    I24      I        0.89850    0.23870    0.90293    1.000
    N37      N        0.72310    0.96050    0.76980    1.000
    N38      N        0.68340    0.83270    0.74690    1.000
    N39      N        0.73390    0.82110    0.80870    1.000
    N40      N        0.83150    0.04070    0.89350    1.000
    N41      N        0.62530    0.06510    0.63790    1.000
    N42      N        0.68070    0.50180    0.77510    1.000
    N43      N        0.03970    0.85550    0.91490    1.000
    N44      N        0.07420    0.71820    0.93680    1.000
    N45      N        0.02390    0.76680    0.97220    1.000
    N46      N        0.91970    0.00930    0.94340    1.000
    N47      N        0.13630    0.84540    0.81790    1.000
    N48      N        0.06990    0.47330    0.04730    1.000
    Zn10     Zn       0.66684    0.36365    0.76845    1.000
    Zn11     Zn       0.58379    0.13248    0.59200    1.000
    Zn12     Zn       0.87456    0.10040    0.93974    1.000
    C145     C        0.75820    0.59000    0.19740    1.000
    C146     C        0.80590    0.57990    0.25630    1.000
    C147     C        0.79470    0.71330    0.22090    1.000
    C148     C        0.80320    0.81230    0.22000    1.000
    C149     C        0.83770    0.84630    0.24540    1.000
    H97      H        0.85610    0.80680    0.26110    1.000
    C150     C        0.84410    0.93840    0.24700    1.000
    H98      H        0.86700    0.96020    0.26440    1.000
    C151     C        0.78590    0.96660    0.19980    1.000
    H99      H        0.76800    0.00790    0.18460    1.000
    C152     C        0.77780    0.87440    0.19640    1.000
    H100     H        0.75510    0.85410    0.17810    1.000
    C153     C        0.72650    0.54610    0.16550    1.000
    C154     C        0.71550    0.45650    0.17240    1.000
    H101     H        0.72750    0.42460    0.19700    1.000
    C155     C        0.68670    0.41670    0.14220    1.000
    H102     H        0.67950    0.35690    0.14680    1.000
    C156     C        0.67890    0.54560    0.09980    1.000
    H103     H        0.66630    0.57570    0.07490    1.000
    C157     C        0.70760    0.59110    0.12870    1.000
    H104     H        0.71400    0.65110    0.12340    1.000
    C158     C        0.82890    0.52860    0.29320    1.000
    C159     C        0.85740    0.57360    0.32390    1.000
    H105     H        0.86150    0.63600    0.32180    1.000
    C160     C        0.87880    0.52410    0.35660    1.000
    H106     H        0.89770    0.55460    0.37660    1.000
    C161     C        0.84740    0.39190    0.33400    1.000
    H107     H        0.84350    0.32990    0.33790    1.000
    C162     C        0.82450    0.43590    0.29890    1.000
    H108     H        0.80620    0.40310    0.27920    1.000
    C163     C        0.48210    0.66340    0.05570    1.000
    C164     C        0.44790    0.79110    0.03350    1.000
    C165     C        0.43210    0.70570    0.08710    1.000
    C166     C        0.51580    0.60270    0.05510    1.000
    C167     C        0.53060    0.59110    0.01800    1.000
    H109     H        0.51930    0.62000    0.99210    1.000
    C168     C        0.56330    0.53380    0.02070    1.000
    H110     H        0.57370    0.52580    0.99590    1.000
    C169     C        0.56600    0.50560    0.09250    1.000
    H111     H        0.57830    0.47790    0.11830    1.000
    C170     C        0.53420    0.55960    0.09300    1.000
    H112     H        0.52490    0.56750    0.11850    1.000
    C171     C        0.40770    0.68760    0.11960    1.000
    C172     C        0.38770    0.75780    0.13570    1.000
    H113     H        0.38880    0.81710    0.12550    1.000
    C173     C        0.36680    0.73880    0.16600    1.000
    H114     H        0.35370    0.78640    0.17650    1.000
    C174     C        0.38210    0.58750    0.16620    1.000
    H115     H        0.37970    0.52860    0.17630    1.000
    C175     C        0.40430    0.60110    0.13560    1.000
    H116     H        0.41700    0.55220    0.12560    1.000
    C176     C        0.44230    0.87440    0.00670    1.000
    C177     C        0.46810    0.89600    0.97960    1.000
    H117     H        0.48990    0.85960    0.97920    1.000
    C178     C        0.46090    0.97250    0.95310    1.000
    H118     H        0.47810    0.98640    0.93490    1.000
    C179     C        0.40640    0.00720    0.98010    1.000
    H119     H        0.38560    0.04640    0.98100    1.000
    C180     C        0.41120    0.93200    0.00690    1.000
    H120     H        0.39360    0.92040    0.02500    1.000
    I25      I        0.87978    0.15173    0.30427    1.000
    I26      I        0.77263    0.23555    0.20978    1.000
    I27      I        0.97372    0.34748    0.37012    1.000
    I28      I        0.88049    0.25063    0.44433    1.000
    I29      I        0.64810    0.40435    0.98874    1.000
    I30      I        0.60150    0.26130    0.09707    1.000
    N49      N        0.77690    0.53950    0.23020    1.000
    N50      N        0.81660    0.66730    0.25310    1.000
    N51      N        0.76610    0.67890    0.19130    1.000
    N52      N        0.66850    0.45930    0.10650    1.000
    N53      N        0.87470    0.43490    0.36210    1.000
    N54      N        0.81930    0.99820    0.22490    1.000
    N55      N        0.46030    0.64450    0.08510    1.000
    N56      N        0.42580    0.78180    0.06320    1.000
    N57      N        0.47610    0.73320    0.02780    1.000
    N58      N        0.58030    0.49070    0.05660    1.000
    N59      N        0.36370    0.65460    0.18210    1.000
    N60      N        0.43010    0.02670    0.95270    1.000
    Zn13     Zn       0.83316    0.13635    0.23155    1.000
    Zn14     Zn       0.91621    0.36752    0.40800    1.000
    Zn15     Zn       0.62544    0.39960    0.06026    1.000
    C181     C        0.25820    0.09000    0.19740    1.000
    C182     C        0.30590    0.07990    0.25630    1.000
    C183     C        0.29470    0.21330    0.22090    1.000
    C184     C        0.30320    0.31230    0.22000    1.000
    C185     C        0.33770    0.34630    0.24540    1.000
    H121     H        0.35610    0.30680    0.26110    1.000
    C186     C        0.34410    0.43840    0.24700    1.000
    H122     H        0.36700    0.46020    0.26440    1.000
    C187     C        0.28590    0.46660    0.19980    1.000
    H123     H        0.26800    0.50790    0.18460    1.000
    C188     C        0.27780    0.37440    0.19640    1.000
    H124     H        0.25510    0.35410    0.17810    1.000
    C189     C        0.22650    0.04610    0.16550    1.000
    C190     C        0.21550    0.95650    0.17240    1.000
    H125     H        0.22750    0.92460    0.19700    1.000
    C191     C        0.18670    0.91670    0.14220    1.000
    H126     H        0.17950    0.85690    0.14680    1.000
    C192     C        0.17890    0.04560    0.09980    1.000
    H127     H        0.16630    0.07570    0.07490    1.000
    C193     C        0.20760    0.09110    0.12870    1.000
    H128     H        0.21400    0.15110    0.12340    1.000
    C194     C        0.32890    0.02860    0.29320    1.000
    C195     C        0.35740    0.07360    0.32390    1.000
    H129     H        0.36150    0.13600    0.32180    1.000
    C196     C        0.37880    0.02410    0.35660    1.000
    H130     H        0.39770    0.05460    0.37660    1.000
    C197     C        0.34740    0.89190    0.33400    1.000
    H131     H        0.34350    0.82990    0.33790    1.000
    C198     C        0.32450    0.93590    0.29890    1.000
    H132     H        0.30620    0.90310    0.27920    1.000
    C199     C        0.98210    0.16340    0.05570    1.000
    C200     C        0.94790    0.29110    0.03350    1.000
    C201     C        0.93210    0.20570    0.08710    1.000
    C202     C        0.01580    0.10270    0.05510    1.000
    C203     C        0.03060    0.09110    0.01800    1.000
    H133     H        0.01930    0.12000    0.99210    1.000
    C204     C        0.06330    0.03380    0.02070    1.000
    H134     H        0.07370    0.02580    0.99590    1.000
    C205     C        0.06600    0.00560    0.09250    1.000
    H135     H        0.07830    0.97790    0.11830    1.000
    C206     C        0.03420    0.05960    0.09300    1.000
    H136     H        0.02490    0.06750    0.11850    1.000
    C207     C        0.90770    0.18760    0.11960    1.000
    C208     C        0.88770    0.25780    0.13570    1.000
    H137     H        0.88880    0.31710    0.12550    1.000
    C209     C        0.86680    0.23880    0.16600    1.000
    H138     H        0.85370    0.28640    0.17650    1.000
    C210     C        0.88210    0.08750    0.16620    1.000
    H139     H        0.87970    0.02860    0.17630    1.000
    C211     C        0.90430    0.10110    0.13560    1.000
    H140     H        0.91700    0.05220    0.12560    1.000
    C212     C        0.94230    0.37440    0.00670    1.000
    C213     C        0.96810    0.39600    0.97960    1.000
    H141     H        0.98990    0.35960    0.97920    1.000
    C214     C        0.96090    0.47250    0.95310    1.000
    H142     H        0.97810    0.48640    0.93490    1.000
    C215     C        0.90640    0.50720    0.98010    1.000
    H143     H        0.88560    0.54640    0.98100    1.000
    C216     C        0.91120    0.43200    0.00690    1.000
    H144     H        0.89360    0.42040    0.02500    1.000
    I31      I        0.37978    0.65173    0.30427    1.000
    I32      I        0.27263    0.73555    0.20978    1.000
    I33      I        0.47372    0.84748    0.37012    1.000
    I34      I        0.38049    0.75063    0.44433    1.000
    I35      I        0.14810    0.90435    0.98874    1.000
    I36      I        0.10150    0.76130    0.09707    1.000
    N61      N        0.27690    0.03950    0.23020    1.000
    N62      N        0.31660    0.16730    0.25310    1.000
    N63      N        0.26610    0.17890    0.19130    1.000
    N64      N        0.16850    0.95930    0.10650    1.000
    N65      N        0.37470    0.93490    0.36210    1.000
    N66      N        0.31930    0.49820    0.22490    1.000
    N67      N        0.96030    0.14450    0.08510    1.000
    N68      N        0.92580    0.28180    0.06320    1.000
    N69      N        0.97610    0.23320    0.02780    1.000
    N70      N        0.08030    0.99070    0.05660    1.000
    N71      N        0.86370    0.15460    0.18210    1.000
    N72      N        0.93010    0.52670    0.95270    1.000
    Zn16     Zn       0.33316    0.63635    0.23155    1.000
    Zn17     Zn       0.41621    0.86752    0.40800    1.000
    Zn18     Zn       0.12544    0.89960    0.06026    1.000
    C217     C        0.75820    0.41000    0.69740    1.000
    C218     C        0.80590    0.42010    0.75630    1.000
    C219     C        0.79470    0.28670    0.72090    1.000
    C220     C        0.80320    0.18770    0.72000    1.000
    C221     C        0.83770    0.15370    0.74540    1.000
    H145     H        0.85610    0.19320    0.76110    1.000
    C222     C        0.84410    0.06160    0.74700    1.000
    H146     H        0.86700    0.03980    0.76440    1.000
    C223     C        0.78590    0.03340    0.69980    1.000
    H147     H        0.76800    0.99210    0.68460    1.000
    C224     C        0.77780    0.12560    0.69640    1.000
    H148     H        0.75510    0.14590    0.67810    1.000
    C225     C        0.72650    0.45390    0.66550    1.000
    C226     C        0.71550    0.54350    0.67240    1.000
    H149     H        0.72750    0.57540    0.69700    1.000
    C227     C        0.68670    0.58330    0.64220    1.000
    H150     H        0.67950    0.64310    0.64680    1.000
    C228     C        0.67890    0.45440    0.59980    1.000
    H151     H        0.66630    0.42430    0.57490    1.000
    C229     C        0.70760    0.40890    0.62870    1.000
    H152     H        0.71400    0.34890    0.62340    1.000
    C230     C        0.82890    0.47140    0.79320    1.000
    C231     C        0.85740    0.42640    0.82390    1.000
    H153     H        0.86150    0.36400    0.82180    1.000
    C232     C        0.87880    0.47590    0.85660    1.000
    H154     H        0.89770    0.44540    0.87660    1.000
    C233     C        0.84740    0.60810    0.83400    1.000
    H155     H        0.84350    0.67010    0.83790    1.000
    C234     C        0.82450    0.56410    0.79890    1.000
    H156     H        0.80620    0.59690    0.77920    1.000
    C235     C        0.48210    0.33660    0.55570    1.000
    C236     C        0.44790    0.20890    0.53350    1.000
    C237     C        0.43210    0.29430    0.58710    1.000
    C238     C        0.51580    0.39730    0.55510    1.000
    C239     C        0.53060    0.40890    0.51800    1.000
    H157     H        0.51930    0.38000    0.49210    1.000
    C240     C        0.56330    0.46620    0.52070    1.000
    H158     H        0.57370    0.47420    0.49590    1.000
    C241     C        0.56600    0.49440    0.59250    1.000
    H159     H        0.57830    0.52210    0.61830    1.000
    C242     C        0.53420    0.44040    0.59300    1.000
    H160     H        0.52490    0.43250    0.61850    1.000
    C243     C        0.40770    0.31240    0.61960    1.000
    C244     C        0.38770    0.24220    0.63570    1.000
    H161     H        0.38880    0.18290    0.62550    1.000
    C245     C        0.36680    0.26120    0.66600    1.000
    H162     H        0.35370    0.21360    0.67650    1.000
    C246     C        0.38210    0.41250    0.66620    1.000
    H163     H        0.37970    0.47140    0.67630    1.000
    C247     C        0.40430    0.39890    0.63560    1.000
    H164     H        0.41700    0.44780    0.62560    1.000
    C248     C        0.44230    0.12560    0.50670    1.000
    C249     C        0.46810    0.10400    0.47960    1.000
    H165     H        0.48990    0.14040    0.47920    1.000
    C250     C        0.46090    0.02750    0.45310    1.000
    H166     H        0.47810    0.01360    0.43490    1.000
    C251     C        0.40640    0.99280    0.48010    1.000
    H167     H        0.38560    0.95360    0.48100    1.000
    C252     C        0.41120    0.06800    0.50690    1.000
    H168     H        0.39360    0.07960    0.52500    1.000
    I37      I        0.87978    0.84827    0.80427    1.000
    I38      I        0.77263    0.76445    0.70978    1.000
    I39      I        0.97372    0.65252    0.87012    1.000
    I40      I        0.88049    0.74937    0.94433    1.000
    I41      I        0.64810    0.59565    0.48874    1.000
    I42      I        0.60150    0.73870    0.59707    1.000
    N73      N        0.77690    0.46050    0.73020    1.000
    N74      N        0.81660    0.33270    0.75310    1.000
    N75      N        0.76610    0.32110    0.69130    1.000
    N76      N        0.66850    0.54070    0.60650    1.000
    N77      N        0.87470    0.56510    0.86210    1.000
    N78      N        0.81930    0.00180    0.72490    1.000
    N79      N        0.46030    0.35550    0.58510    1.000
    N80      N        0.42580    0.21820    0.56320    1.000
    N81      N        0.47610    0.26680    0.52780    1.000
    N82      N        0.58030    0.50930    0.55660    1.000
    N83      N        0.36370    0.34540    0.68210    1.000
    N84      N        0.43010    0.97330    0.45270    1.000
    Zn19     Zn       0.83316    0.86365    0.73155    1.000
    Zn20     Zn       0.91621    0.63248    0.90800    1.000
    Zn21     Zn       0.62544    0.60040    0.56026    1.000
    C253     C        0.25820    0.91000    0.69740    1.000
    C254     C        0.30590    0.92010    0.75630    1.000
    C255     C        0.29470    0.78670    0.72090    1.000
    C256     C        0.30320    0.68770    0.72000    1.000
    C257     C        0.33770    0.65370    0.74540    1.000
    H169     H        0.35610    0.69320    0.76110    1.000
    C258     C        0.34410    0.56160    0.74700    1.000
    H170     H        0.36700    0.53980    0.76440    1.000
    C259     C        0.28590    0.53340    0.69980    1.000
    H171     H        0.26800    0.49210    0.68460    1.000
    C260     C        0.27780    0.62560    0.69640    1.000
    H172     H        0.25510    0.64590    0.67810    1.000
    C261     C        0.22650    0.95390    0.66550    1.000
    C262     C        0.21550    0.04350    0.67240    1.000
    H173     H        0.22750    0.07540    0.69700    1.000
    C263     C        0.18670    0.08330    0.64220    1.000
    H174     H        0.17950    0.14310    0.64680    1.000
    C264     C        0.17890    0.95440    0.59980    1.000
    H175     H        0.16630    0.92430    0.57490    1.000
    C265     C        0.20760    0.90890    0.62870    1.000
    H176     H        0.21400    0.84890    0.62340    1.000
    C266     C        0.32890    0.97140    0.79320    1.000
    C267     C        0.35740    0.92640    0.82390    1.000
    H177     H        0.36150    0.86400    0.82180    1.000
    C268     C        0.37880    0.97590    0.85660    1.000
    H178     H        0.39770    0.94540    0.87660    1.000
    C269     C        0.34740    0.10810    0.83400    1.000
    H179     H        0.34350    0.17010    0.83790    1.000
    C270     C        0.32450    0.06410    0.79890    1.000
    H180     H        0.30620    0.09690    0.77920    1.000
    C271     C        0.98210    0.83660    0.55570    1.000
    C272     C        0.94790    0.70890    0.53350    1.000
    C273     C        0.93210    0.79430    0.58710    1.000
    C274     C        0.01580    0.89730    0.55510    1.000
    C275     C        0.03060    0.90890    0.51800    1.000
    H181     H        0.01930    0.88000    0.49210    1.000
    C276     C        0.06330    0.96620    0.52070    1.000
    H182     H        0.07370    0.97420    0.49590    1.000
    C277     C        0.06600    0.99440    0.59250    1.000
    H183     H        0.07830    0.02210    0.61830    1.000
    C278     C        0.03420    0.94040    0.59300    1.000
    H184     H        0.02490    0.93250    0.61850    1.000
    C279     C        0.90770    0.81240    0.61960    1.000
    C280     C        0.88770    0.74220    0.63570    1.000
    H185     H        0.88880    0.68290    0.62550    1.000
    C281     C        0.86680    0.76120    0.66600    1.000
    H186     H        0.85370    0.71360    0.67650    1.000
    C282     C        0.88210    0.91250    0.66620    1.000
    H187     H        0.87970    0.97140    0.67630    1.000
    C283     C        0.90430    0.89890    0.63560    1.000
    H188     H        0.91700    0.94780    0.62560    1.000
    C284     C        0.94230    0.62560    0.50670    1.000
    C285     C        0.96810    0.60400    0.47960    1.000
    H189     H        0.98990    0.64040    0.47920    1.000
    C286     C        0.96090    0.52750    0.45310    1.000
    H190     H        0.97810    0.51360    0.43490    1.000
    C287     C        0.90640    0.49280    0.48010    1.000
    H191     H        0.88560    0.45360    0.48100    1.000
    C288     C        0.91120    0.56800    0.50690    1.000
    H192     H        0.89360    0.57960    0.52500    1.000
    I43      I        0.37978    0.34827    0.80427    1.000
    I44      I        0.27263    0.26445    0.70978    1.000
    I45      I        0.47372    0.15252    0.87012    1.000
    I46      I        0.38049    0.24937    0.94433    1.000
    I47      I        0.14810    0.09565    0.48874    1.000
    I48      I        0.10150    0.23870    0.59707    1.000
    N85      N        0.27690    0.96050    0.73020    1.000
    N86      N        0.31660    0.83270    0.75310    1.000
    N87      N        0.26610    0.82110    0.69130    1.000
    N88      N        0.16850    0.04070    0.60650    1.000
    N89      N        0.37470    0.06510    0.86210    1.000
    N90      N        0.31930    0.50180    0.72490    1.000
    N91      N        0.96030    0.85550    0.58510    1.000
    N92      N        0.92580    0.71820    0.56320    1.000
    N93      N        0.97610    0.76680    0.52780    1.000
    N94      N        0.08030    0.00930    0.55660    1.000
    N95      N        0.86370    0.84540    0.68210    1.000
    N96      N        0.93010    0.47330    0.45270    1.000
    Zn22     Zn       0.33316    0.36365    0.73155    1.000
    Zn23     Zn       0.41621    0.13248    0.90800    1.000
    Zn24     Zn       0.12544    0.10040    0.56026    1.000
