# CIF file generated by openbabel 3.1.0, see https://openbabel.org
data_I
_chemical_name_common 'image0'
_cell_length_a 21.4551
_cell_length_b 21.4551
_cell_length_c 34.1708
_cell_angle_alpha 90
_cell_angle_beta 90
_cell_angle_gamma 120
_space_group_name_H-M_alt 'P 1'
_space_group_name_Hall 'P 1'
loop_
    _symmetry_equiv_pos_as_xyz
    x,y,z
loop_
    _atom_site_label
    _atom_site_type_symbol
    _atom_site_fract_x
    _atom_site_fract_y
    _atom_site_fract_z
    _atom_site_occupancy
    W1       W        0.29337    0.73113    0.06796    1.000
    W2       W        0.15774    0.51820    0.97825    1.000
    W3       W        0.29122    0.72878    0.77959    1.000
    W4       W        0.15721    0.51871    0.86833    1.000
    W5       W        0.17853    0.68362    0.97969    1.000
    W6       W        0.17939    0.68447    0.86934    1.000
    N1       N        0.27770    0.90780    0.71350    1.000
    N2       N        0.20180    0.85120    0.78240    1.000
    O1       O        0.14680    0.52270    0.92390    1.000
    O2       O        0.12040    0.58130    0.98690    1.000
    O3       O        0.12150    0.58340    0.86130    1.000
    O4       O        0.22610    0.48950    0.87870    1.000
    O5       O        0.25420    0.63570    0.87870    1.000
    O6       O        0.16520    0.67190    0.92400    1.000
    O7       O        0.25490    0.63530    0.96900    1.000
    O8       O        0.21440    0.69320    0.03160    1.000
    O9       O        0.25040    0.63260    0.75820    1.000
    O10      O        0.22700    0.48880    0.96930    1.000
    O11      O        0.21540    0.69380    0.81580    1.000
    O12      O        0.34290    0.80540    0.03120    1.000
    O13      O        0.25170    0.63490    0.09050    1.000
    O14      O        0.11710    0.71150    0.85850    1.000
    O15      O        0.19370    0.53730    0.81550    1.000
    C1       C        0.30820    0.92560    0.74860    1.000
    H1       H        0.35750    0.95740    0.75000    1.000
    C2       C        0.20890    0.86290    0.71290    1.000
    H2       H        0.18470    0.85000    0.68910    1.000
    C3       C        0.27150    0.89980    0.78220    1.000
    H3       H        0.29550    0.91650    0.80590    1.000
    C4       C        0.17160    0.83430    0.74700    1.000
    H4       H        0.12260    0.80120    0.74530    1.000
    W7       W        0.96004    0.06446    0.40129    1.000
    W8       W        0.82441    0.85153    0.31158    1.000
    W9       W        0.95789    0.06211    0.11292    1.000
    W10      W        0.82388    0.85204    0.20166    1.000
    W11      W        0.84520    0.01695    0.31302    1.000
    W12      W        0.84606    0.01780    0.20267    1.000
    N3       N        0.94437    0.24113    0.04683    1.000
    N4       N        0.86847    0.18453    0.11573    1.000
    O16      O        0.81347    0.85603    0.25723    1.000
    O17      O        0.78707    0.91463    0.32023    1.000
    O18      O        0.78817    0.91673    0.19463    1.000
    O19      O        0.89277    0.82283    0.21203    1.000
    O20      O        0.92087    0.96903    0.21203    1.000
    O21      O        0.83187    0.00523    0.25733    1.000
    O22      O        0.92157    0.96863    0.30233    1.000
    O23      O        0.88107    0.02653    0.36493    1.000
    O24      O        0.91707    0.96593    0.09153    1.000
    O25      O        0.89367    0.82213    0.30263    1.000
    O26      O        0.88207    0.02713    0.14913    1.000
    O27      O        0.00957    0.13873    0.36453    1.000
    O28      O        0.91837    0.96823    0.42383    1.000
    O29      O        0.78377    0.04483    0.19183    1.000
    O30      O        0.86037    0.87063    0.14883    1.000
    C5       C        0.97487    0.25893    0.08193    1.000
    H5       H        0.02417    0.29073    0.08333    1.000
    C6       C        0.87557    0.19623    0.04623    1.000
    H6       H        0.85137    0.18333    0.02243    1.000
    C7       C        0.93817    0.23313    0.11553    1.000
    H7       H        0.96217    0.24983    0.13923    1.000
    C8       C        0.83827    0.16763    0.08033    1.000
    H8       H        0.78927    0.13453    0.07863    1.000
    W13      W        0.62670    0.39780    0.73463    1.000
    W14      W        0.49107    0.18487    0.64492    1.000
    W15      W        0.62455    0.39545    0.44626    1.000
    W16      W        0.49054    0.18538    0.53500    1.000
    W17      W        0.51186    0.35029    0.64636    1.000
    W18      W        0.51272    0.35114    0.53601    1.000
    N5       N        0.61103    0.57447    0.38017    1.000
    N6       N        0.53513    0.51787    0.44907    1.000
    O31      O        0.48013    0.18937    0.59057    1.000
    O32      O        0.45373    0.24797    0.65357    1.000
    O33      O        0.45483    0.25007    0.52797    1.000
    O34      O        0.55943    0.15617    0.54537    1.000
    O35      O        0.58753    0.30237    0.54537    1.000
    O36      O        0.49853    0.33857    0.59067    1.000
    O37      O        0.58823    0.30197    0.63567    1.000
    O38      O        0.54773    0.35987    0.69827    1.000
    O39      O        0.58373    0.29927    0.42487    1.000
    O40      O        0.56033    0.15547    0.63597    1.000
    O41      O        0.54873    0.36047    0.48247    1.000
    O42      O        0.67623    0.47207    0.69787    1.000
    O43      O        0.58503    0.30157    0.75717    1.000
    O44      O        0.45043    0.37817    0.52517    1.000
    O45      O        0.52703    0.20397    0.48217    1.000
    C9       C        0.64153    0.59227    0.41527    1.000
    H9       H        0.69083    0.62407    0.41667    1.000
    C10      C        0.54223    0.52957    0.37957    1.000
    H10      H        0.51803    0.51667    0.35577    1.000
    C11      C        0.60483    0.56647    0.44887    1.000
    H11      H        0.62883    0.58317    0.47257    1.000
    C12      C        0.50493    0.50097    0.41367    1.000
    H12      H        0.45593    0.46787    0.41197    1.000
    W19      W        0.26887    0.56224    0.06796    1.000
    W20      W        0.48180    0.63954    0.97825    1.000
    W21      W        0.27122    0.56244    0.77959    1.000
    W22      W        0.48129    0.63850    0.86833    1.000
    W23      W        0.31638    0.49491    0.97969    1.000
    W24      W        0.31553    0.49492    0.86934    1.000
    N7       N        0.09220    0.36990    0.71350    1.000
    N8       N        0.14880    0.35060    0.78240    1.000
    O46      O        0.47730    0.62410    0.92390    1.000
    O47      O        0.41870    0.53910    0.98690    1.000
    O48      O        0.41660    0.53810    0.86130    1.000
    O49      O        0.51050    0.73660    0.87870    1.000
    O50      O        0.36430    0.61850    0.87870    1.000
    O51      O        0.32810    0.49330    0.92400    1.000
    O52      O        0.36470    0.61960    0.96900    1.000
    O53      O        0.30680    0.52120    0.03160    1.000
    O54      O        0.36740    0.61780    0.75820    1.000
    O55      O        0.51120    0.73820    0.96930    1.000
    O56      O        0.30620    0.52160    0.81580    1.000
    O57      O        0.19460    0.53750    0.03120    1.000
    O58      O        0.36510    0.61680    0.09050    1.000
    O59      O        0.28850    0.40560    0.85850    1.000
    O60      O        0.46270    0.65640    0.81550    1.000
    C13      C        0.07440    0.38260    0.74860    1.000
    H13      H        0.04260    0.40010    0.75000    1.000
    C14      C        0.13710    0.34600    0.71290    1.000
    H14      H        0.15000    0.33470    0.68910    1.000
    C15      C        0.10020    0.37170    0.78220    1.000
    H15      H        0.08350    0.37900    0.80590    1.000
    C16      C        0.16570    0.33730    0.74700    1.000
    H16      H        0.19880    0.32140    0.74530    1.000
    W25      W        0.93554    0.89557    0.40129    1.000
    W26      W        0.14847    0.97287    0.31158    1.000
    W27      W        0.93789    0.89577    0.11292    1.000
    W28      W        0.14796    0.97183    0.20166    1.000
    W29      W        0.98305    0.82824    0.31302    1.000
    W30      W        0.98220    0.82825    0.20267    1.000
    N9       N        0.75887    0.70323    0.04683    1.000
    N10      N        0.81547    0.68393    0.11573    1.000
    O61      O        0.14397    0.95743    0.25723    1.000
    O62      O        0.08537    0.87243    0.32023    1.000
    O63      O        0.08327    0.87143    0.19463    1.000
    O64      O        0.17717    0.06993    0.21203    1.000
    O65      O        0.03097    0.95183    0.21203    1.000
    O66      O        0.99477    0.82663    0.25733    1.000
    O67      O        0.03137    0.95293    0.30233    1.000
    O68      O        0.97347    0.85453    0.36493    1.000
    O69      O        0.03407    0.95113    0.09153    1.000
    O70      O        0.17787    0.07153    0.30263    1.000
    O71      O        0.97287    0.85493    0.14913    1.000
    O72      O        0.86127    0.87083    0.36453    1.000
    O73      O        0.03177    0.95013    0.42383    1.000
    O74      O        0.95517    0.73893    0.19183    1.000
    O75      O        0.12937    0.98973    0.14883    1.000
    C17      C        0.74107    0.71593    0.08193    1.000
    H17      H        0.70927    0.73343    0.08333    1.000
    C18      C        0.80377    0.67933    0.04623    1.000
    H18      H        0.81667    0.66803    0.02243    1.000
    C19      C        0.76687    0.70503    0.11553    1.000
    H19      H        0.75017    0.71233    0.13923    1.000
    C20      C        0.83237    0.67063    0.08033    1.000
    H20      H        0.86547    0.65473    0.07863    1.000
    W31      W        0.60220    0.22891    0.73463    1.000
    W32      W        0.81513    0.30621    0.64492    1.000
    W33      W        0.60455    0.22911    0.44626    1.000
    W34      W        0.81462    0.30517    0.53500    1.000
    W35      W        0.64971    0.16158    0.64636    1.000
    W36      W        0.64886    0.16159    0.53601    1.000
    N11      N        0.42553    0.03657    0.38017    1.000
    N12      N        0.48213    0.01727    0.44907    1.000
    O76      O        0.81063    0.29077    0.59057    1.000
    O77      O        0.75203    0.20577    0.65357    1.000
    O78      O        0.74993    0.20477    0.52797    1.000
    O79      O        0.84383    0.40327    0.54537    1.000
    O80      O        0.69763    0.28517    0.54537    1.000
    O81      O        0.66143    0.15997    0.59067    1.000
    O82      O        0.69803    0.28627    0.63567    1.000
    O83      O        0.64013    0.18787    0.69827    1.000
    O84      O        0.70073    0.28447    0.42487    1.000
    O85      O        0.84453    0.40487    0.63597    1.000
    O86      O        0.63953    0.18827    0.48247    1.000
    O87      O        0.52793    0.20417    0.69787    1.000
    O88      O        0.69843    0.28347    0.75717    1.000
    O89      O        0.62183    0.07227    0.52517    1.000
    O90      O        0.79603    0.32307    0.48217    1.000
    C21      C        0.40773    0.04927    0.41527    1.000
    H21      H        0.37593    0.06677    0.41667    1.000
    C22      C        0.47043    0.01267    0.37957    1.000
    H22      H        0.48333    0.00137    0.35577    1.000
    C23      C        0.43353    0.03837    0.44887    1.000
    H23      H        0.41683    0.04567    0.47257    1.000
    C24      C        0.49903    0.00397    0.41367    1.000
    H24      H        0.53213    0.98807    0.41197    1.000
    W37      W        0.43776    0.70663    0.06796    1.000
    W38      W        0.36046    0.84226    0.97825    1.000
    W39      W        0.43756    0.70878    0.77959    1.000
    W40      W        0.36150    0.84279    0.86833    1.000
    W41      W        0.50509    0.82147    0.97969    1.000
    W42      W        0.50508    0.82061    0.86934    1.000
    N13      N        0.63010    0.72230    0.71350    1.000
    N14      N        0.64940    0.79820    0.78240    1.000
    O91      O        0.37590    0.85320    0.92390    1.000
    O92      O        0.46090    0.87960    0.98690    1.000
    O93      O        0.46190    0.87850    0.86130    1.000
    O94      O        0.26340    0.77390    0.87870    1.000
    O95      O        0.38150    0.74580    0.87870    1.000
    O96      O        0.50670    0.83480    0.92400    1.000
    O97      O        0.38040    0.74510    0.96900    1.000
    O98      O        0.47880    0.78560    0.03160    1.000
    O99      O        0.38220    0.74960    0.75820    1.000
    O100     O        0.26180    0.77300    0.96930    1.000
    O101     O        0.47840    0.78460    0.81580    1.000
    O102     O        0.46250    0.65710    0.03120    1.000
    O103     O        0.38320    0.74830    0.09050    1.000
    O104     O        0.59440    0.88290    0.85850    1.000
    O105     O        0.34360    0.80630    0.81550    1.000
    C25      C        0.61740    0.69180    0.74860    1.000
    H25      H        0.59990    0.64250    0.75000    1.000
    C26      C        0.65400    0.79110    0.71290    1.000
    H26      H        0.66530    0.81530    0.68910    1.000
    C27      C        0.62830    0.72850    0.78220    1.000
    H27      H        0.62100    0.70450    0.80590    1.000
    C28      C        0.66270    0.82840    0.74700    1.000
    H28      H        0.67860    0.87740    0.74530    1.000
    W43      W        0.10443    0.03996    0.40129    1.000
    W44      W        0.02713    0.17559    0.31158    1.000
    W45      W        0.10423    0.04211    0.11292    1.000
    W46      W        0.02817    0.17612    0.20166    1.000
    W47      W        0.17176    0.15480    0.31302    1.000
    W48      W        0.17175    0.15394    0.20267    1.000
    N15      N        0.29677    0.05563    0.04683    1.000
    N16      N        0.31607    0.13153    0.11573    1.000
    O106     O        0.04257    0.18653    0.25723    1.000
    O107     O        0.12757    0.21293    0.32023    1.000
    O108     O        0.12857    0.21183    0.19463    1.000
    O109     O        0.93007    0.10723    0.21203    1.000
    O110     O        0.04817    0.07913    0.21203    1.000
    O111     O        0.17337    0.16813    0.25733    1.000
    O112     O        0.04707    0.07843    0.30233    1.000
    O113     O        0.14547    0.11893    0.36493    1.000
    O114     O        0.04887    0.08293    0.09153    1.000
    O115     O        0.92847    0.10633    0.30263    1.000
    O116     O        0.14507    0.11793    0.14913    1.000
    O117     O        0.12917    0.99043    0.36453    1.000
    O118     O        0.04987    0.08163    0.42383    1.000
    O119     O        0.26107    0.21623    0.19183    1.000
    O120     O        0.01027    0.13963    0.14883    1.000
    C29      C        0.28407    0.02513    0.08193    1.000
    H29      H        0.26657    0.97583    0.08333    1.000
    C30      C        0.32067    0.12443    0.04623    1.000
    H30      H        0.33197    0.14863    0.02243    1.000
    C31      C        0.29497    0.06183    0.11553    1.000
    H31      H        0.28767    0.03783    0.13923    1.000
    C32      C        0.32937    0.16173    0.08033    1.000
    H32      H        0.34527    0.21073    0.07863    1.000
    W49      W        0.77109    0.37330    0.73463    1.000
    W50      W        0.69379    0.50893    0.64492    1.000
    W51      W        0.77089    0.37545    0.44626    1.000
    W52      W        0.69483    0.50946    0.53500    1.000
    W53      W        0.83842    0.48814    0.64636    1.000
    W54      W        0.83841    0.48728    0.53601    1.000
    N17      N        0.96343    0.38897    0.38017    1.000
    N18      N        0.98273    0.46487    0.44907    1.000
    O121     O        0.70923    0.51987    0.59057    1.000
    O122     O        0.79423    0.54627    0.65357    1.000
    O123     O        0.79523    0.54517    0.52797    1.000
    O124     O        0.59673    0.44057    0.54537    1.000
    O125     O        0.71483    0.41247    0.54537    1.000
    O126     O        0.84003    0.50147    0.59067    1.000
    O127     O        0.71373    0.41177    0.63567    1.000
    O128     O        0.81213    0.45227    0.69827    1.000
    O129     O        0.71553    0.41627    0.42487    1.000
    O130     O        0.59513    0.43967    0.63597    1.000
    O131     O        0.81173    0.45127    0.48247    1.000
    O132     O        0.79583    0.32377    0.69787    1.000
    O133     O        0.71653    0.41497    0.75717    1.000
    O134     O        0.92773    0.54957    0.52517    1.000
    O135     O        0.67693    0.47297    0.48217    1.000
    C33      C        0.95073    0.35847    0.41527    1.000
    H33      H        0.93323    0.30917    0.41667    1.000
    C34      C        0.98733    0.45777    0.37957    1.000
    H34      H        0.99863    0.48197    0.35577    1.000
    C35      C        0.96163    0.39517    0.44887    1.000
    H35      H        0.95433    0.37117    0.47257    1.000
    C36      C        0.99603    0.49507    0.41367    1.000
    H36      H        0.01193    0.54407    0.41197    1.000
    W55      W        0.73113    0.29337    0.93204    1.000
    W56      W        0.51820    0.15774    0.02175    1.000
    W57      W        0.72878    0.29122    0.22041    1.000
    W58      W        0.51871    0.15721    0.13167    1.000
    W59      W        0.68362    0.17853    0.02031    1.000
    W60      W        0.68447    0.17939    0.13066    1.000
    N19      N        0.90780    0.27770    0.28650    1.000
    N20      N        0.85120    0.20180    0.21760    1.000
    O136     O        0.52270    0.14680    0.07610    1.000
    O137     O        0.58130    0.12040    0.01310    1.000
    O138     O        0.58340    0.12150    0.13870    1.000
    O139     O        0.48950    0.22610    0.12130    1.000
    O140     O        0.63570    0.25420    0.12130    1.000
    O141     O        0.67190    0.16520    0.07600    1.000
    O142     O        0.63530    0.25490    0.03100    1.000
    O143     O        0.69320    0.21440    0.96840    1.000
    O144     O        0.63260    0.25040    0.24180    1.000
    O145     O        0.48880    0.22700    0.03070    1.000
    O146     O        0.69380    0.21540    0.18420    1.000
    O147     O        0.80540    0.34290    0.96880    1.000
    O148     O        0.63490    0.25170    0.90950    1.000
    O149     O        0.71150    0.11710    0.14150    1.000
    O150     O        0.53730    0.19370    0.18450    1.000
    C37      C        0.92560    0.30820    0.25140    1.000
    H37      H        0.95740    0.35750    0.25000    1.000
    C38      C        0.86290    0.20890    0.28710    1.000
    H38      H        0.85000    0.18470    0.31090    1.000
    C39      C        0.89980    0.27150    0.21780    1.000
    H39      H        0.91650    0.29550    0.19410    1.000
    C40      C        0.83430    0.17160    0.25300    1.000
    H40      H        0.80120    0.12260    0.25470    1.000
    W61      W        0.39780    0.62670    0.26537    1.000
    W62      W        0.18487    0.49107    0.35508    1.000
    W63      W        0.39545    0.62455    0.55374    1.000
    W64      W        0.18538    0.49054    0.46500    1.000
    W65      W        0.35029    0.51186    0.35364    1.000
    W66      W        0.35114    0.51272    0.46399    1.000
    N21      N        0.57447    0.61103    0.61983    1.000
    N22      N        0.51787    0.53513    0.55093    1.000
    O151     O        0.18937    0.48013    0.40943    1.000
    O152     O        0.24797    0.45373    0.34643    1.000
    O153     O        0.25007    0.45483    0.47203    1.000
    O154     O        0.15617    0.55943    0.45463    1.000
    O155     O        0.30237    0.58753    0.45463    1.000
    O156     O        0.33857    0.49853    0.40933    1.000
    O157     O        0.30197    0.58823    0.36433    1.000
    O158     O        0.35987    0.54773    0.30173    1.000
    O159     O        0.29927    0.58373    0.57513    1.000
    O160     O        0.15547    0.56033    0.36403    1.000
    O161     O        0.36047    0.54873    0.51753    1.000
    O162     O        0.47207    0.67623    0.30213    1.000
    O163     O        0.30157    0.58503    0.24283    1.000
    O164     O        0.37817    0.45043    0.47483    1.000
    O165     O        0.20397    0.52703    0.51783    1.000
    C41      C        0.59227    0.64153    0.58473    1.000
    H41      H        0.62407    0.69083    0.58333    1.000
    C42      C        0.52957    0.54223    0.62043    1.000
    H42      H        0.51667    0.51803    0.64423    1.000
    C43      C        0.56647    0.60483    0.55113    1.000
    H43      H        0.58317    0.62883    0.52743    1.000
    C44      C        0.50097    0.50493    0.58633    1.000
    H44      H        0.46787    0.45593    0.58803    1.000
    W67      W        0.06446    0.96004    0.59871    1.000
    W68      W        0.85153    0.82441    0.68842    1.000
    W69      W        0.06211    0.95789    0.88708    1.000
    W70      W        0.85204    0.82388    0.79834    1.000
    W71      W        0.01695    0.84520    0.68698    1.000
    W72      W        0.01780    0.84606    0.79733    1.000
    N23      N        0.24113    0.94437    0.95317    1.000
    N24      N        0.18453    0.86847    0.88427    1.000
    O166     O        0.85603    0.81347    0.74277    1.000
    O167     O        0.91463    0.78707    0.67977    1.000
    O168     O        0.91673    0.78817    0.80537    1.000
    O169     O        0.82283    0.89277    0.78797    1.000
    O170     O        0.96903    0.92087    0.78797    1.000
    O171     O        0.00523    0.83187    0.74267    1.000
    O172     O        0.96863    0.92157    0.69767    1.000
    O173     O        0.02653    0.88107    0.63507    1.000
    O174     O        0.96593    0.91707    0.90847    1.000
    O175     O        0.82213    0.89367    0.69737    1.000
    O176     O        0.02713    0.88207    0.85087    1.000
    O177     O        0.13873    0.00957    0.63547    1.000
    O178     O        0.96823    0.91837    0.57617    1.000
    O179     O        0.04483    0.78377    0.80817    1.000
    O180     O        0.87063    0.86037    0.85117    1.000
    C45      C        0.25893    0.97487    0.91807    1.000
    H45      H        0.29073    0.02417    0.91667    1.000
    C46      C        0.19623    0.87557    0.95377    1.000
    H46      H        0.18333    0.85137    0.97757    1.000
    C47      C        0.23313    0.93817    0.88447    1.000
    H47      H        0.24983    0.96217    0.86077    1.000
    C48      C        0.16763    0.83827    0.91967    1.000
    H48      H        0.13453    0.78927    0.92137    1.000
    W73      W        0.56224    0.26887    0.93204    1.000
    W74      W        0.63954    0.48180    0.02175    1.000
    W75      W        0.56244    0.27122    0.22041    1.000
    W76      W        0.63850    0.48129    0.13167    1.000
    W77      W        0.49491    0.31638    0.02031    1.000
    W78      W        0.49492    0.31553    0.13066    1.000
    N25      N        0.36990    0.09220    0.28650    1.000
    N26      N        0.35060    0.14880    0.21760    1.000
    O181     O        0.62410    0.47730    0.07610    1.000
    O182     O        0.53910    0.41870    0.01310    1.000
    O183     O        0.53810    0.41660    0.13870    1.000
    O184     O        0.73660    0.51050    0.12130    1.000
    O185     O        0.61850    0.36430    0.12130    1.000
    O186     O        0.49330    0.32810    0.07600    1.000
    O187     O        0.61960    0.36470    0.03100    1.000
    O188     O        0.52120    0.30680    0.96840    1.000
    O189     O        0.61780    0.36740    0.24180    1.000
    O190     O        0.73820    0.51120    0.03070    1.000
    O191     O        0.52160    0.30620    0.18420    1.000
    O192     O        0.53750    0.19460    0.96880    1.000
    O193     O        0.61680    0.36510    0.90950    1.000
    O194     O        0.40560    0.28850    0.14150    1.000
    O195     O        0.65640    0.46270    0.18450    1.000
    C49      C        0.38260    0.07440    0.25140    1.000
    H49      H        0.40010    0.04260    0.25000    1.000
    C50      C        0.34600    0.13710    0.28710    1.000
    H50      H        0.33470    0.15000    0.31090    1.000
    C51      C        0.37170    0.10020    0.21780    1.000
    H51      H        0.37900    0.08350    0.19410    1.000
    C52      C        0.33730    0.16570    0.25300    1.000
    H52      H        0.32140    0.19880    0.25470    1.000
    W79      W        0.22891    0.60220    0.26537    1.000
    W80      W        0.30621    0.81513    0.35508    1.000
    W81      W        0.22911    0.60455    0.55374    1.000
    W82      W        0.30517    0.81462    0.46500    1.000
    W83      W        0.16158    0.64971    0.35364    1.000
    W84      W        0.16159    0.64886    0.46399    1.000
    N27      N        0.03657    0.42553    0.61983    1.000
    N28      N        0.01727    0.48213    0.55093    1.000
    O196     O        0.29077    0.81063    0.40943    1.000
    O197     O        0.20577    0.75203    0.34643    1.000
    O198     O        0.20477    0.74993    0.47203    1.000
    O199     O        0.40327    0.84383    0.45463    1.000
    O200     O        0.28517    0.69763    0.45463    1.000
    O201     O        0.15997    0.66143    0.40933    1.000
    O202     O        0.28627    0.69803    0.36433    1.000
    O203     O        0.18787    0.64013    0.30173    1.000
    O204     O        0.28447    0.70073    0.57513    1.000
    O205     O        0.40487    0.84453    0.36403    1.000
    O206     O        0.18827    0.63953    0.51753    1.000
    O207     O        0.20417    0.52793    0.30213    1.000
    O208     O        0.28347    0.69843    0.24283    1.000
    O209     O        0.07227    0.62183    0.47483    1.000
    O210     O        0.32307    0.79603    0.51783    1.000
    C53      C        0.04927    0.40773    0.58473    1.000
    H53      H        0.06677    0.37593    0.58333    1.000
    C54      C        0.01267    0.47043    0.62043    1.000
    H54      H        0.00137    0.48333    0.64423    1.000
    C55      C        0.03837    0.43353    0.55113    1.000
    H55      H        0.04567    0.41683    0.52743    1.000
    C56      C        0.00397    0.49903    0.58633    1.000
    H56      H        0.98807    0.53213    0.58803    1.000
    W85      W        0.89557    0.93554    0.59871    1.000
    W86      W        0.97287    0.14847    0.68842    1.000
    W87      W        0.89577    0.93789    0.88708    1.000
    W88      W        0.97183    0.14796    0.79834    1.000
    W89      W        0.82824    0.98305    0.68698    1.000
    W90      W        0.82825    0.98220    0.79733    1.000
    N29      N        0.70323    0.75887    0.95317    1.000
    N30      N        0.68393    0.81547    0.88427    1.000
    O211     O        0.95743    0.14397    0.74277    1.000
    O212     O        0.87243    0.08537    0.67977    1.000
    O213     O        0.87143    0.08327    0.80537    1.000
    O214     O        0.06993    0.17717    0.78797    1.000
    O215     O        0.95183    0.03097    0.78797    1.000
    O216     O        0.82663    0.99477    0.74267    1.000
    O217     O        0.95293    0.03137    0.69767    1.000
    O218     O        0.85453    0.97347    0.63507    1.000
    O219     O        0.95113    0.03407    0.90847    1.000
    O220     O        0.07153    0.17787    0.69737    1.000
    O221     O        0.85493    0.97287    0.85087    1.000
    O222     O        0.87083    0.86127    0.63547    1.000
    O223     O        0.95013    0.03177    0.57617    1.000
    O224     O        0.73893    0.95517    0.80817    1.000
    O225     O        0.98973    0.12937    0.85117    1.000
    C57      C        0.71593    0.74107    0.91807    1.000
    H57      H        0.73343    0.70927    0.91667    1.000
    C58      C        0.67933    0.80377    0.95377    1.000
    H58      H        0.66803    0.81667    0.97757    1.000
    C59      C        0.70503    0.76687    0.88447    1.000
    H59      H        0.71233    0.75017    0.86077    1.000
    C60      C        0.67063    0.83237    0.91967    1.000
    H60      H        0.65473    0.86547    0.92137    1.000
    W91      W        0.70663    0.43776    0.93204    1.000
    W92      W        0.84226    0.36046    0.02175    1.000
    W93      W        0.70878    0.43756    0.22041    1.000
    W94      W        0.84279    0.36150    0.13167    1.000
    W95      W        0.82147    0.50509    0.02031    1.000
    W96      W        0.82061    0.50508    0.13066    1.000
    N31      N        0.72230    0.63010    0.28650    1.000
    N32      N        0.79820    0.64940    0.21760    1.000
    O226     O        0.85320    0.37590    0.07610    1.000
    O227     O        0.87960    0.46090    0.01310    1.000
    O228     O        0.87850    0.46190    0.13870    1.000
    O229     O        0.77390    0.26340    0.12130    1.000
    O230     O        0.74580    0.38150    0.12130    1.000
    O231     O        0.83480    0.50670    0.07600    1.000
    O232     O        0.74510    0.38040    0.03100    1.000
    O233     O        0.78560    0.47880    0.96840    1.000
    O234     O        0.74960    0.38220    0.24180    1.000
    O235     O        0.77300    0.26180    0.03070    1.000
    O236     O        0.78460    0.47840    0.18420    1.000
    O237     O        0.65710    0.46250    0.96880    1.000
    O238     O        0.74830    0.38320    0.90950    1.000
    O239     O        0.88290    0.59440    0.14150    1.000
    O240     O        0.80630    0.34360    0.18450    1.000
    C61      C        0.69180    0.61740    0.25140    1.000
    H61      H        0.64250    0.59990    0.25000    1.000
    C62      C        0.79110    0.65400    0.28710    1.000
    H62      H        0.81530    0.66530    0.31090    1.000
    C63      C        0.72850    0.62830    0.21780    1.000
    H63      H        0.70450    0.62100    0.19410    1.000
    C64      C        0.82840    0.66270    0.25300    1.000
    H64      H        0.87740    0.67860    0.25470    1.000
    W97      W        0.37330    0.77109    0.26537    1.000
    W98      W        0.50893    0.69379    0.35508    1.000
    W99      W        0.37545    0.77089    0.55374    1.000
    W100     W        0.50946    0.69483    0.46500    1.000
    W101     W        0.48814    0.83842    0.35364    1.000
    W102     W        0.48728    0.83841    0.46399    1.000
    N33      N        0.38897    0.96343    0.61983    1.000
    N34      N        0.46487    0.98273    0.55093    1.000
    O241     O        0.51987    0.70923    0.40943    1.000
    O242     O        0.54627    0.79423    0.34643    1.000
    O243     O        0.54517    0.79523    0.47203    1.000
    O244     O        0.44057    0.59673    0.45463    1.000
    O245     O        0.41247    0.71483    0.45463    1.000
    O246     O        0.50147    0.84003    0.40933    1.000
    O247     O        0.41177    0.71373    0.36433    1.000
    O248     O        0.45227    0.81213    0.30173    1.000
    O249     O        0.41627    0.71553    0.57513    1.000
    O250     O        0.43967    0.59513    0.36403    1.000
    O251     O        0.45127    0.81173    0.51753    1.000
    O252     O        0.32377    0.79583    0.30213    1.000
    O253     O        0.41497    0.71653    0.24283    1.000
    O254     O        0.54957    0.92773    0.47483    1.000
    O255     O        0.47297    0.67693    0.51783    1.000
    C65      C        0.35847    0.95073    0.58473    1.000
    H65      H        0.30917    0.93323    0.58333    1.000
    C66      C        0.45777    0.98733    0.62043    1.000
    H66      H        0.48197    0.99863    0.64423    1.000
    C67      C        0.39517    0.96163    0.55113    1.000
    H67      H        0.37117    0.95433    0.52743    1.000
    C68      C        0.49507    0.99603    0.58633    1.000
    H68      H        0.54407    0.01193    0.58803    1.000
    W103     W        0.03996    0.10443    0.59871    1.000
    W104     W        0.17559    0.02713    0.68842    1.000
    W105     W        0.04211    0.10423    0.88708    1.000
    W106     W        0.17612    0.02817    0.79834    1.000
    W107     W        0.15480    0.17176    0.68698    1.000
    W108     W        0.15394    0.17175    0.79733    1.000
    N35      N        0.05563    0.29677    0.95317    1.000
    N36      N        0.13153    0.31607    0.88427    1.000
    O256     O        0.18653    0.04257    0.74277    1.000
    O257     O        0.21293    0.12757    0.67977    1.000
    O258     O        0.21183    0.12857    0.80537    1.000
    O259     O        0.10723    0.93007    0.78797    1.000
    O260     O        0.07913    0.04817    0.78797    1.000
    O261     O        0.16813    0.17337    0.74267    1.000
    O262     O        0.07843    0.04707    0.69767    1.000
    O263     O        0.11893    0.14547    0.63507    1.000
    O264     O        0.08293    0.04887    0.90847    1.000
    O265     O        0.10633    0.92847    0.69737    1.000
    O266     O        0.11793    0.14507    0.85087    1.000
    O267     O        0.99043    0.12917    0.63547    1.000
    O268     O        0.08163    0.04987    0.57617    1.000
    O269     O        0.21623    0.26107    0.80817    1.000
    O270     O        0.13963    0.01027    0.85117    1.000
    C69      C        0.02513    0.28407    0.91807    1.000
    H69      H        0.97583    0.26657    0.91667    1.000
    C70      C        0.12443    0.32067    0.95377    1.000
    H70      H        0.14863    0.33197    0.97757    1.000
    C71      C        0.06183    0.29497    0.88447    1.000
    H71      H        0.03783    0.28767    0.86077    1.000
    C72      C        0.16173    0.32937    0.91967    1.000
    H72      H        0.21073    0.34527    0.92137    1.000
    Cu1      Cu       0.33333    0.94162    0.66667    1.000
    Cu2      Cu       0.00000    0.27495    0.00000    1.000
    Cu3      Cu       0.05838    0.39172    0.66667    1.000
    Cu4      Cu       0.72505    0.72505    0.00000    1.000
    Cu5      Cu       0.60828    0.66667    0.66667    1.000
    Cu6      Cu       0.27495    0.00000    0.00000    1.000
    Cu7      Cu       0.94162    0.33333    0.33333    1.000
    Cu8      Cu       0.39172    0.05838    0.33333    1.000
    Cu9      Cu       0.66667    0.60828    0.33333    1.000
    Cu10     Cu       0.15019    0.81686    0.83333    1.000
    Cu11     Cu       0.18314    0.33333    0.83333    1.000
    Cu12     Cu       0.66667    0.84981    0.83333    1.000
    Cu13     Cu       0.81686    0.15019    0.16667    1.000
    Cu14     Cu       0.48353    0.48353    0.50000    1.000
    Cu15     Cu       0.33333    0.18314    0.16667    1.000
    Cu16     Cu       0.00000    0.51647    0.50000    1.000
    Cu17     Cu       0.84981    0.66667    0.16667    1.000
    Cu18     Cu       0.51647    0.00000    0.50000    1.000
    P1       P        0.33333    0.66667    0.98228    1.000
    P2       P        0.33333    0.66667    0.86552    1.000
    O271     O        0.33333    0.66667    0.02820    1.000
    O272     O        0.33333    0.66667    0.81970    1.000
    P3       P        0.00000    0.00000    0.31561    1.000
    P4       P        0.00000    0.00000    0.19885    1.000
    O273     O        0.00000    0.00000    0.36153    1.000
    O274     O        0.00000    0.00000    0.15303    1.000
    P5       P        0.66667    0.33333    0.64895    1.000
    P6       P        0.66667    0.33333    0.53219    1.000
    O275     O        0.66667    0.33333    0.69487    1.000
    O276     O        0.66667    0.33333    0.48637    1.000
    P7       P        0.66667    0.33333    0.01772    1.000
    P8       P        0.66667    0.33333    0.13448    1.000
    O277     O        0.66667    0.33333    0.97180    1.000
    O278     O        0.66667    0.33333    0.18030    1.000
    P9       P        0.33333    0.66667    0.35105    1.000
    P10      P        0.33333    0.66667    0.46781    1.000
    O279     O        0.33333    0.66667    0.30513    1.000
    O280     O        0.33333    0.66667    0.51363    1.000
    P11      P        0.00000    0.00000    0.68439    1.000
    P12      P        0.00000    0.00000    0.80115    1.000
    O281     O        0.00000    0.00000    0.63847    1.000
    O282     O        0.00000    0.00000    0.84697    1.000
