# CIF file generated by openbabel 3.1.0, see https://openbabel.org
data_I
_chemical_name_common 'image0'
_cell_length_a 24.743
_cell_length_b 24.743
_cell_length_c 24.743
_cell_angle_alpha 90
_cell_angle_beta 90
_cell_angle_gamma 90
_space_group_name_H-M_alt 'P 1'
_space_group_name_Hall 'P 1'
loop_
    _symmetry_equiv_pos_as_xyz
    x,y,z
loop_
    _atom_site_label
    _atom_site_type_symbol
    _atom_site_fract_x
    _atom_site_fract_y
    _atom_site_fract_z
    _atom_site_occupancy
    N1       N        0.91060    0.52070    0.18660    1.000
    C1       C        0.86700    0.53170    0.15780    1.000
    N2       N        0.91060    0.02070    0.68660    1.000
    C2       C        0.86700    0.03170    0.65780    1.000
    N3       N        0.41060    0.52070    0.68660    1.000
    C3       C        0.36700    0.53170    0.65780    1.000
    N4       N        0.41060    0.02070    0.18660    1.000
    C4       C        0.36700    0.03170    0.15780    1.000
    N5       N        0.33940    0.22930    0.68660    1.000
    C5       C        0.38300    0.21830    0.65780    1.000
    N6       N        0.33940    0.72930    0.18660    1.000
    C6       C        0.38300    0.71830    0.15780    1.000
    N7       N        0.83940    0.22930    0.18660    1.000
    C7       C        0.88300    0.21830    0.15780    1.000
    N8       N        0.83940    0.72930    0.68660    1.000
    C8       C        0.88300    0.71830    0.65780    1.000
    N9       N        0.83940    0.02070    0.06340    1.000
    C9       C        0.88300    0.03170    0.09220    1.000
    N10      N        0.83940    0.52070    0.56340    1.000
    C10      C        0.88300    0.53170    0.59220    1.000
    N11      N        0.33940    0.02070    0.56340    1.000
    C11      C        0.38300    0.03170    0.59220    1.000
    N12      N        0.33940    0.52070    0.06340    1.000
    C12      C        0.38300    0.53170    0.09220    1.000
    N13      N        0.41060    0.72930    0.56340    1.000
    C13      C        0.36700    0.71830    0.59220    1.000
    N14      N        0.41060    0.22930    0.06340    1.000
    C14      C        0.36700    0.21830    0.09220    1.000
    N15      N        0.91060    0.72930    0.06340    1.000
    C15      C        0.86700    0.71830    0.09220    1.000
    N16      N        0.91060    0.22930    0.56340    1.000
    C16      C        0.86700    0.21830    0.59220    1.000
    N17      N        0.18660    0.91060    0.52070    1.000
    C17      C        0.15780    0.86700    0.53170    1.000
    N18      N        0.18660    0.41060    0.02070    1.000
    C18      C        0.15780    0.36700    0.03170    1.000
    N19      N        0.68660    0.91060    0.02070    1.000
    C19      C        0.65780    0.86700    0.03170    1.000
    N20      N        0.68660    0.41060    0.52070    1.000
    C20      C        0.65780    0.36700    0.53170    1.000
    N21      N        0.68660    0.33940    0.22930    1.000
    C21      C        0.65780    0.38300    0.21830    1.000
    N22      N        0.68660    0.83940    0.72930    1.000
    C22      C        0.65780    0.88300    0.71830    1.000
    N23      N        0.18660    0.33940    0.72930    1.000
    C23      C        0.15780    0.38300    0.71830    1.000
    N24      N        0.18660    0.83940    0.22930    1.000
    C24      C        0.15780    0.88300    0.21830    1.000
    N25      N        0.06340    0.83940    0.02070    1.000
    C25      C        0.09220    0.88300    0.03170    1.000
    N26      N        0.06340    0.33940    0.52070    1.000
    C26      C        0.09220    0.38300    0.53170    1.000
    N27      N        0.56340    0.83940    0.52070    1.000
    C27      C        0.59220    0.88300    0.53170    1.000
    N28      N        0.56340    0.33940    0.02070    1.000
    C28      C        0.59220    0.38300    0.03170    1.000
    N29      N        0.56340    0.41060    0.72930    1.000
    C29      C        0.59220    0.36700    0.71830    1.000
    N30      N        0.56340    0.91060    0.22930    1.000
    C30      C        0.59220    0.86700    0.21830    1.000
    N31      N        0.06340    0.41060    0.22930    1.000
    C31      C        0.09220    0.36700    0.21830    1.000
    N32      N        0.06340    0.91060    0.72930    1.000
    C32      C        0.09220    0.86700    0.71830    1.000
    N33      N        0.52070    0.18660    0.91060    1.000
    C33      C        0.53170    0.15780    0.86700    1.000
    N34      N        0.52070    0.68660    0.41060    1.000
    C34      C        0.53170    0.65780    0.36700    1.000
    N35      N        0.02070    0.18660    0.41060    1.000
    C35      C        0.03170    0.15780    0.36700    1.000
    N36      N        0.02070    0.68660    0.91060    1.000
    C36      C        0.03170    0.65780    0.86700    1.000
    N37      N        0.22930    0.68660    0.33940    1.000
    C37      C        0.21830    0.65780    0.38300    1.000
    N38      N        0.22930    0.18660    0.83940    1.000
    C38      C        0.21830    0.15780    0.88300    1.000
    N39      N        0.72930    0.68660    0.83940    1.000
    C39      C        0.71830    0.65780    0.88300    1.000
    N40      N        0.72930    0.18660    0.33940    1.000
    C40      C        0.71830    0.15780    0.38300    1.000
    N41      N        0.02070    0.06340    0.83940    1.000
    C41      C        0.03170    0.09220    0.88300    1.000
    N42      N        0.02070    0.56340    0.33940    1.000
    C42      C        0.03170    0.59220    0.38300    1.000
    N43      N        0.52070    0.06340    0.33940    1.000
    C43      C        0.53170    0.09220    0.38300    1.000
    N44      N        0.52070    0.56340    0.83940    1.000
    C44      C        0.53170    0.59220    0.88300    1.000
    N45      N        0.72930    0.56340    0.41060    1.000
    C45      C        0.71830    0.59220    0.36700    1.000
    N46      N        0.72930    0.06340    0.91060    1.000
    C46      C        0.71830    0.09220    0.86700    1.000
    N47      N        0.22930    0.56340    0.91060    1.000
    C47      C        0.21830    0.59220    0.86700    1.000
    N48      N        0.22930    0.06340    0.41060    1.000
    C48      C        0.21830    0.09220    0.36700    1.000
    N49      N        0.27070    0.16060    0.81340    1.000
    C49      C        0.28170    0.11700    0.84220    1.000
    N50      N        0.27070    0.66060    0.31340    1.000
    C50      C        0.28170    0.61700    0.34220    1.000
    N51      N        0.77070    0.16060    0.31340    1.000
    C51      C        0.78170    0.11700    0.34220    1.000
    N52      N        0.77070    0.66060    0.81340    1.000
    C52      C        0.78170    0.61700    0.84220    1.000
    N53      N        0.97930    0.58940    0.31340    1.000
    C53      C        0.96830    0.63300    0.34220    1.000
    N54      N        0.97930    0.08940    0.81340    1.000
    C54      C        0.96830    0.13300    0.84220    1.000
    N55      N        0.47930    0.58940    0.81340    1.000
    C55      C        0.46830    0.63300    0.84220    1.000
    N56      N        0.47930    0.08940    0.31340    1.000
    C56      C        0.46830    0.13300    0.34220    1.000
    N57      N        0.77070    0.08940    0.93660    1.000
    C57      C        0.78170    0.13300    0.90780    1.000
    N58      N        0.77070    0.58940    0.43660    1.000
    C58      C        0.78170    0.63300    0.40780    1.000
    N59      N        0.27070    0.08940    0.43660    1.000
    C59      C        0.28170    0.13300    0.40780    1.000
    N60      N        0.27070    0.58940    0.93660    1.000
    C60      C        0.28170    0.63300    0.90780    1.000
    N61      N        0.47930    0.66060    0.43660    1.000
    C61      C        0.46830    0.61700    0.40780    1.000
    N62      N        0.47930    0.16060    0.93660    1.000
    C62      C        0.46830    0.11700    0.90780    1.000
    N63      N        0.97930    0.66060    0.93660    1.000
    C63      C        0.96830    0.61700    0.90780    1.000
    N64      N        0.97930    0.16060    0.43660    1.000
    C64      C        0.96830    0.11700    0.40780    1.000
    N65      N        0.66060    0.43660    0.47930    1.000
    C65      C        0.61700    0.40780    0.46830    1.000
    N66      N        0.66060    0.93660    0.97930    1.000
    C66      C        0.61700    0.90780    0.96830    1.000
    N67      N        0.16060    0.43660    0.97930    1.000
    C67      C        0.11700    0.40780    0.96830    1.000
    N68      N        0.16060    0.93660    0.47930    1.000
    C68      C        0.11700    0.90780    0.46830    1.000
    N69      N        0.08940    0.93660    0.77070    1.000
    C69      C        0.13300    0.90780    0.78170    1.000
    N70      N        0.08940    0.43660    0.27070    1.000
    C70      C        0.13300    0.40780    0.28170    1.000
    N71      N        0.58940    0.93660    0.27070    1.000
    C71      C        0.63300    0.90780    0.28170    1.000
    N72      N        0.58940    0.43660    0.77070    1.000
    C72      C        0.63300    0.40780    0.78170    1.000
    N73      N        0.58940    0.31340    0.97930    1.000
    C73      C        0.63300    0.34220    0.96830    1.000
    N74      N        0.58940    0.81340    0.47930    1.000
    C74      C        0.63300    0.84220    0.46830    1.000
    N75      N        0.08940    0.31340    0.47930    1.000
    C75      C        0.13300    0.34220    0.46830    1.000
    N76      N        0.08940    0.81340    0.97930    1.000
    C76      C        0.13300    0.84220    0.96830    1.000
    N77      N        0.16060    0.81340    0.27070    1.000
    C77      C        0.11700    0.84220    0.28170    1.000
    N78      N        0.16060    0.31340    0.77070    1.000
    C78      C        0.11700    0.34220    0.78170    1.000
    N79      N        0.66060    0.81340    0.77070    1.000
    C79      C        0.61700    0.84220    0.78170    1.000
    N80      N        0.66060    0.31340    0.27070    1.000
    C80      C        0.61700    0.34220    0.28170    1.000
    N81      N        0.93660    0.77070    0.08940    1.000
    C81      C        0.90780    0.78170    0.13300    1.000
    N82      N        0.93660    0.27070    0.58940    1.000
    C82      C        0.90780    0.28170    0.63300    1.000
    N83      N        0.43660    0.77070    0.58940    1.000
    C83      C        0.40780    0.78170    0.63300    1.000
    N84      N        0.43660    0.27070    0.08940    1.000
    C84      C        0.40780    0.28170    0.13300    1.000
    N85      N        0.43660    0.47930    0.66060    1.000
    C85      C        0.40780    0.46830    0.61700    1.000
    N86      N        0.43660    0.97930    0.16060    1.000
    C86      C        0.40780    0.96830    0.11700    1.000
    N87      N        0.93660    0.47930    0.16060    1.000
    C87      C        0.90780    0.46830    0.11700    1.000
    N88      N        0.93660    0.97930    0.66060    1.000
    C88      C        0.90780    0.96830    0.61700    1.000
    N89      N        0.81340    0.27070    0.16060    1.000
    C89      C        0.84220    0.28170    0.11700    1.000
    N90      N        0.81340    0.77070    0.66060    1.000
    C90      C        0.84220    0.78170    0.61700    1.000
    N91      N        0.31340    0.27070    0.66060    1.000
    C91      C        0.34220    0.28170    0.61700    1.000
    N92      N        0.31340    0.77070    0.16060    1.000
    C92      C        0.34220    0.78170    0.11700    1.000
    N93      N        0.31340    0.97930    0.58940    1.000
    C93      C        0.34220    0.96830    0.63300    1.000
    N94      N        0.31340    0.47930    0.08940    1.000
    C94      C        0.34220    0.46830    0.13300    1.000
    N95      N        0.81340    0.97930    0.08940    1.000
    C95      C        0.84220    0.96830    0.13300    1.000
    N96      N        0.81340    0.47930    0.58940    1.000
    C96      C        0.84220    0.46830    0.63300    1.000
    N97      N        0.08940    0.47930    0.81340    1.000
    C97      C        0.13300    0.46830    0.84220    1.000
    N98      N        0.08940    0.97930    0.31340    1.000
    C98      C        0.13300    0.96830    0.34220    1.000
    N99      N        0.58940    0.47930    0.31340    1.000
    C99      C        0.63300    0.46830    0.34220    1.000
    N100     N        0.58940    0.97930    0.81340    1.000
    C100     C        0.63300    0.96830    0.84220    1.000
    N101     N        0.66060    0.77070    0.31340    1.000
    C101     C        0.61700    0.78170    0.34220    1.000
    N102     N        0.66060    0.27070    0.81340    1.000
    C102     C        0.61700    0.28170    0.84220    1.000
    N103     N        0.16060    0.77070    0.81340    1.000
    C103     C        0.11700    0.78170    0.84220    1.000
    N104     N        0.16060    0.27070    0.31340    1.000
    C104     C        0.11700    0.28170    0.34220    1.000
    N105     N        0.16060    0.97930    0.93660    1.000
    C105     C        0.11700    0.96830    0.90780    1.000
    N106     N        0.16060    0.47930    0.43660    1.000
    C106     C        0.11700    0.46830    0.40780    1.000
    N107     N        0.66060    0.97930    0.43660    1.000
    C107     C        0.61700    0.96830    0.40780    1.000
    N108     N        0.66060    0.47930    0.93660    1.000
    C108     C        0.61700    0.46830    0.90780    1.000
    N109     N        0.58940    0.27070    0.43660    1.000
    C109     C        0.63300    0.28170    0.40780    1.000
    N110     N        0.58940    0.77070    0.93660    1.000
    C110     C        0.63300    0.78170    0.90780    1.000
    N111     N        0.08940    0.27070    0.93660    1.000
    C111     C        0.13300    0.28170    0.90780    1.000
    N112     N        0.08940    0.77070    0.43660    1.000
    C112     C        0.13300    0.78170    0.40780    1.000
    N113     N        0.81340    0.08940    0.47930    1.000
    C113     C        0.84220    0.13300    0.46830    1.000
    N114     N        0.81340    0.58940    0.97930    1.000
    C114     C        0.84220    0.63300    0.96830    1.000
    N115     N        0.31340    0.08940    0.97930    1.000
    C115     C        0.34220    0.13300    0.96830    1.000
    N116     N        0.31340    0.58940    0.47930    1.000
    C116     C        0.34220    0.63300    0.46830    1.000
    N117     N        0.31340    0.66060    0.77070    1.000
    C117     C        0.34220    0.61700    0.78170    1.000
    N118     N        0.31340    0.16060    0.27070    1.000
    C118     C        0.34220    0.11700    0.28170    1.000
    N119     N        0.81340    0.66060    0.27070    1.000
    C119     C        0.84220    0.61700    0.28170    1.000
    N120     N        0.81340    0.16060    0.77070    1.000
    C120     C        0.84220    0.11700    0.78170    1.000
    N121     N        0.93660    0.16060    0.97930    1.000
    C121     C        0.90780    0.11700    0.96830    1.000
    N122     N        0.93660    0.66060    0.47930    1.000
    C122     C        0.90780    0.61700    0.46830    1.000
    N123     N        0.43660    0.16060    0.47930    1.000
    C123     C        0.40780    0.11700    0.46830    1.000
    N124     N        0.43660    0.66060    0.97930    1.000
    C124     C        0.40780    0.61700    0.96830    1.000
    N125     N        0.43660    0.58940    0.27070    1.000
    C125     C        0.40780    0.63300    0.28170    1.000
    N126     N        0.43660    0.08940    0.77070    1.000
    C126     C        0.40780    0.13300    0.78170    1.000
    N127     N        0.93660    0.58940    0.77070    1.000
    C127     C        0.90780    0.63300    0.78170    1.000
    N128     N        0.93660    0.08940    0.27070    1.000
    C128     C        0.90780    0.13300    0.28170    1.000
    N129     N        0.47930    0.81340    0.08940    1.000
    C129     C        0.46830    0.84220    0.13300    1.000
    N130     N        0.47930    0.31340    0.58940    1.000
    C130     C        0.46830    0.34220    0.63300    1.000
    N131     N        0.97930    0.81340    0.58940    1.000
    C131     C        0.96830    0.84220    0.63300    1.000
    N132     N        0.97930    0.31340    0.08940    1.000
    C132     C        0.96830    0.34220    0.13300    1.000
    N133     N        0.77070    0.31340    0.66060    1.000
    C133     C        0.78170    0.34220    0.61700    1.000
    N134     N        0.77070    0.81340    0.16060    1.000
    C134     C        0.78170    0.84220    0.11700    1.000
    N135     N        0.27070    0.31340    0.16060    1.000
    C135     C        0.28170    0.34220    0.11700    1.000
    N136     N        0.27070    0.81340    0.66060    1.000
    C136     C        0.28170    0.84220    0.61700    1.000
    N137     N        0.97930    0.93660    0.16060    1.000
    C137     C        0.96830    0.90780    0.11700    1.000
    N138     N        0.97930    0.43660    0.66060    1.000
    C138     C        0.96830    0.40780    0.61700    1.000
    N139     N        0.47930    0.93660    0.66060    1.000
    C139     C        0.46830    0.90780    0.61700    1.000
    N140     N        0.47930    0.43660    0.16060    1.000
    C140     C        0.46830    0.40780    0.11700    1.000
    N141     N        0.27070    0.43660    0.58940    1.000
    C141     C        0.28170    0.40780    0.63300    1.000
    N142     N        0.27070    0.93660    0.08940    1.000
    C142     C        0.28170    0.90780    0.13300    1.000
    N143     N        0.77070    0.43660    0.08940    1.000
    C143     C        0.78170    0.40780    0.13300    1.000
    N144     N        0.77070    0.93660    0.58940    1.000
    C144     C        0.78170    0.90780    0.63300    1.000
    N145     N        0.72930    0.83940    0.18660    1.000
    C145     C        0.71830    0.88300    0.15780    1.000
    N146     N        0.72930    0.33940    0.68660    1.000
    C146     C        0.71830    0.38300    0.65780    1.000
    N147     N        0.22930    0.83940    0.68660    1.000
    C147     C        0.21830    0.88300    0.65780    1.000
    N148     N        0.22930    0.33940    0.18660    1.000
    C148     C        0.21830    0.38300    0.15780    1.000
    N149     N        0.02070    0.41060    0.68660    1.000
    C149     C        0.03170    0.36700    0.65780    1.000
    N150     N        0.02070    0.91060    0.18660    1.000
    C150     C        0.03170    0.86700    0.15780    1.000
    N151     N        0.52070    0.41060    0.18660    1.000
    C151     C        0.53170    0.36700    0.15780    1.000
    N152     N        0.52070    0.91060    0.68660    1.000
    C152     C        0.53170    0.86700    0.65780    1.000
    N153     N        0.22930    0.91060    0.06340    1.000
    C153     C        0.21830    0.86700    0.09220    1.000
    N154     N        0.22930    0.41060    0.56340    1.000
    C154     C        0.21830    0.36700    0.59220    1.000
    N155     N        0.72930    0.91060    0.56340    1.000
    C155     C        0.71830    0.86700    0.59220    1.000
    N156     N        0.72930    0.41060    0.06340    1.000
    C156     C        0.71830    0.36700    0.09220    1.000
    N157     N        0.52070    0.33940    0.56340    1.000
    C157     C        0.53170    0.38300    0.59220    1.000
    N158     N        0.52070    0.83940    0.06340    1.000
    C158     C        0.53170    0.88300    0.09220    1.000
    N159     N        0.02070    0.33940    0.06340    1.000
    C159     C        0.03170    0.38300    0.09220    1.000
    N160     N        0.02070    0.83940    0.56340    1.000
    C160     C        0.03170    0.88300    0.59220    1.000
    N161     N        0.33940    0.56340    0.52070    1.000
    C161     C        0.38300    0.59220    0.53170    1.000
    N162     N        0.33940    0.06340    0.02070    1.000
    C162     C        0.38300    0.09220    0.03170    1.000
    N163     N        0.83940    0.56340    0.02070    1.000
    C163     C        0.88300    0.59220    0.03170    1.000
    N164     N        0.83940    0.06340    0.52070    1.000
    C164     C        0.88300    0.09220    0.53170    1.000
    N165     N        0.91060    0.06340    0.22930    1.000
    C165     C        0.86700    0.09220    0.21830    1.000
    N166     N        0.91060    0.56340    0.72930    1.000
    C166     C        0.86700    0.59220    0.71830    1.000
    N167     N        0.41060    0.06340    0.72930    1.000
    C167     C        0.36700    0.09220    0.71830    1.000
    N168     N        0.41060    0.56340    0.22930    1.000
    C168     C        0.36700    0.59220    0.21830    1.000
    N169     N        0.41060    0.68660    0.02070    1.000
    C169     C        0.36700    0.65780    0.03170    1.000
    N170     N        0.41060    0.18660    0.52070    1.000
    C170     C        0.36700    0.15780    0.53170    1.000
    N171     N        0.91060    0.68660    0.52070    1.000
    C171     C        0.86700    0.65780    0.53170    1.000
    N172     N        0.91060    0.18660    0.02070    1.000
    C172     C        0.86700    0.15780    0.03170    1.000
    N173     N        0.83940    0.18660    0.72930    1.000
    C173     C        0.88300    0.15780    0.71830    1.000
    N174     N        0.83940    0.68660    0.22930    1.000
    C174     C        0.88300    0.65780    0.21830    1.000
    N175     N        0.33940    0.18660    0.22930    1.000
    C175     C        0.38300    0.15780    0.21830    1.000
    N176     N        0.33940    0.68660    0.72930    1.000
    C176     C        0.38300    0.65780    0.71830    1.000
    N177     N        0.06340    0.22930    0.91060    1.000
    C177     C        0.09220    0.21830    0.86700    1.000
    N178     N        0.06340    0.72930    0.41060    1.000
    C178     C        0.09220    0.71830    0.36700    1.000
    N179     N        0.56340    0.22930    0.41060    1.000
    C179     C        0.59220    0.21830    0.36700    1.000
    N180     N        0.56340    0.72930    0.91060    1.000
    C180     C        0.59220    0.71830    0.86700    1.000
    N181     N        0.56340    0.52070    0.33940    1.000
    C181     C        0.59220    0.53170    0.38300    1.000
    N182     N        0.56340    0.02070    0.83940    1.000
    C182     C        0.59220    0.03170    0.88300    1.000
    N183     N        0.06340    0.52070    0.83940    1.000
    C183     C        0.09220    0.53170    0.88300    1.000
    N184     N        0.06340    0.02070    0.33940    1.000
    C184     C        0.09220    0.03170    0.38300    1.000
    N185     N        0.18660    0.72930    0.83940    1.000
    C185     C        0.15780    0.71830    0.88300    1.000
    N186     N        0.18660    0.22930    0.33940    1.000
    C186     C        0.15780    0.21830    0.38300    1.000
    N187     N        0.68660    0.72930    0.33940    1.000
    C187     C        0.65780    0.71830    0.38300    1.000
    N188     N        0.68660    0.22930    0.83940    1.000
    C188     C        0.65780    0.21830    0.88300    1.000
    N189     N        0.68660    0.02070    0.41060    1.000
    C189     C        0.65780    0.03170    0.36700    1.000
    N190     N        0.68660    0.52070    0.91060    1.000
    C190     C        0.65780    0.53170    0.86700    1.000
    N191     N        0.18660    0.02070    0.91060    1.000
    C191     C        0.15780    0.03170    0.86700    1.000
    N192     N        0.18660    0.52070    0.41060    1.000
    C192     C        0.15780    0.53170    0.36700    1.000
    Cu1      Cu       0.80650    0.50000    0.05650    1.000
    N193     N        0.86360    0.50000    0.11360    1.000
    Cu2      Cu       0.80650    0.00000    0.55650    1.000
    N194     N        0.86360    0.00000    0.61360    1.000
    Cu3      Cu       0.44350    0.25000    0.55650    1.000
    N195     N        0.38640    0.25000    0.61360    1.000
    Cu4      Cu       0.44350    0.75000    0.05650    1.000
    N196     N        0.38640    0.75000    0.11360    1.000
    Cu5      Cu       0.94350    0.00000    0.19350    1.000
    N197     N        0.88640    0.00000    0.13640    1.000
    Cu6      Cu       0.94350    0.50000    0.69350    1.000
    N198     N        0.88640    0.50000    0.63640    1.000
    Cu7      Cu       0.30650    0.75000    0.69350    1.000
    N199     N        0.36360    0.75000    0.63640    1.000
    Cu8      Cu       0.30650    0.25000    0.19350    1.000
    N200     N        0.36360    0.25000    0.13640    1.000
    Cu9      Cu       0.05650    0.80650    0.50000    1.000
    N201     N        0.11360    0.86360    0.50000    1.000
    Cu10     Cu       0.05650    0.30650    0.00000    1.000
    N202     N        0.11360    0.36360    0.00000    1.000
    Cu11     Cu       0.55650    0.44350    0.25000    1.000
    N203     N        0.61360    0.38640    0.25000    1.000
    Cu12     Cu       0.55650    0.94350    0.75000    1.000
    N204     N        0.61360    0.88640    0.75000    1.000
    Cu13     Cu       0.19350    0.94350    0.00000    1.000
    N205     N        0.13640    0.88640    0.00000    1.000
    Cu14     Cu       0.19350    0.44350    0.50000    1.000
    N206     N        0.13640    0.38640    0.50000    1.000
    Cu15     Cu       0.69350    0.30650    0.75000    1.000
    N207     N        0.63640    0.36360    0.75000    1.000
    Cu16     Cu       0.69350    0.80650    0.25000    1.000
    N208     N        0.63640    0.86360    0.25000    1.000
    Cu17     Cu       0.50000    0.05650    0.80650    1.000
    N209     N        0.50000    0.11360    0.86360    1.000
    Cu18     Cu       0.00000    0.05650    0.30650    1.000
    N210     N        0.00000    0.11360    0.36360    1.000
    Cu19     Cu       0.25000    0.55650    0.44350    1.000
    N211     N        0.25000    0.61360    0.38640    1.000
    Cu20     Cu       0.75000    0.55650    0.94350    1.000
    N212     N        0.75000    0.61360    0.88640    1.000
    Cu21     Cu       0.00000    0.19350    0.94350    1.000
    N213     N        0.00000    0.13640    0.88640    1.000
    Cu22     Cu       0.50000    0.19350    0.44350    1.000
    N214     N        0.50000    0.13640    0.38640    1.000
    Cu23     Cu       0.75000    0.69350    0.30650    1.000
    N215     N        0.75000    0.63640    0.36360    1.000
    Cu24     Cu       0.25000    0.69350    0.80650    1.000
    N216     N        0.25000    0.63640    0.86360    1.000
    Cu25     Cu       0.25000    0.05650    0.94350    1.000
    N217     N        0.25000    0.11360    0.88640    1.000
    Cu26     Cu       0.75000    0.05650    0.44350    1.000
    N218     N        0.75000    0.11360    0.38640    1.000
    Cu27     Cu       0.00000    0.69350    0.44350    1.000
    N219     N        0.00000    0.63640    0.38640    1.000
    Cu28     Cu       0.50000    0.69350    0.94350    1.000
    N220     N        0.50000    0.63640    0.88640    1.000
    Cu29     Cu       0.75000    0.19350    0.80650    1.000
    N221     N        0.75000    0.13640    0.86360    1.000
    Cu30     Cu       0.25000    0.19350    0.30650    1.000
    N222     N        0.25000    0.13640    0.36360    1.000
    Cu31     Cu       0.50000    0.55650    0.30650    1.000
    N223     N        0.50000    0.61360    0.36360    1.000
    Cu32     Cu       0.00000    0.55650    0.80650    1.000
    N224     N        0.00000    0.61360    0.86360    1.000
    Cu33     Cu       0.55650    0.30650    0.50000    1.000
    N225     N        0.61360    0.36360    0.50000    1.000
    Cu34     Cu       0.55650    0.80650    0.00000    1.000
    N226     N        0.61360    0.86360    0.00000    1.000
    Cu35     Cu       0.19350    0.80650    0.75000    1.000
    N227     N        0.13640    0.86360    0.75000    1.000
    Cu36     Cu       0.19350    0.30650    0.25000    1.000
    N228     N        0.13640    0.36360    0.25000    1.000
    Cu37     Cu       0.69350    0.44350    0.00000    1.000
    N229     N        0.63640    0.38640    0.00000    1.000
    Cu38     Cu       0.69350    0.94350    0.50000    1.000
    N230     N        0.63640    0.88640    0.50000    1.000
    Cu39     Cu       0.05650    0.94350    0.25000    1.000
    N231     N        0.11360    0.88640    0.25000    1.000
    Cu40     Cu       0.05650    0.44350    0.75000    1.000
    N232     N        0.11360    0.38640    0.75000    1.000
    Cu41     Cu       0.80650    0.75000    0.19350    1.000
    N233     N        0.86360    0.75000    0.13640    1.000
    Cu42     Cu       0.80650    0.25000    0.69350    1.000
    N234     N        0.86360    0.25000    0.63640    1.000
    Cu43     Cu       0.30650    0.50000    0.55650    1.000
    N235     N        0.36360    0.50000    0.61360    1.000
    Cu44     Cu       0.30650    0.00000    0.05650    1.000
    N236     N        0.36360    0.00000    0.11360    1.000
    Cu45     Cu       0.94350    0.25000    0.05650    1.000
    N237     N        0.88640    0.25000    0.11360    1.000
    Cu46     Cu       0.94350    0.75000    0.55650    1.000
    N238     N        0.88640    0.75000    0.61360    1.000
    Cu47     Cu       0.44350    0.00000    0.69350    1.000
    N239     N        0.38640    0.00000    0.63640    1.000
    Cu48     Cu       0.44350    0.50000    0.19350    1.000
    N240     N        0.38640    0.50000    0.13640    1.000
    Cu49     Cu       0.19350    0.50000    0.94350    1.000
    N241     N        0.13640    0.50000    0.88640    1.000
    Cu50     Cu       0.19350    0.00000    0.44350    1.000
    N242     N        0.13640    0.00000    0.38640    1.000
    Cu51     Cu       0.55650    0.75000    0.44350    1.000
    N243     N        0.61360    0.75000    0.38640    1.000
    Cu52     Cu       0.55650    0.25000    0.94350    1.000
    N244     N        0.61360    0.25000    0.88640    1.000
    Cu53     Cu       0.05650    0.00000    0.80650    1.000
    N245     N        0.11360    0.00000    0.86360    1.000
    Cu54     Cu       0.05650    0.50000    0.30650    1.000
    N246     N        0.11360    0.50000    0.36360    1.000
    Cu55     Cu       0.69350    0.25000    0.30650    1.000
    N247     N        0.63640    0.25000    0.36360    1.000
    Cu56     Cu       0.69350    0.75000    0.80650    1.000
    N248     N        0.63640    0.75000    0.86360    1.000
    Cu57     Cu       0.94350    0.19350    0.50000    1.000
    N249     N        0.88640    0.13640    0.50000    1.000
    Cu58     Cu       0.94350    0.69350    0.00000    1.000
    N250     N        0.88640    0.63640    0.00000    1.000
    Cu59     Cu       0.44350    0.55650    0.75000    1.000
    N251     N        0.38640    0.61360    0.75000    1.000
    Cu60     Cu       0.44350    0.05650    0.25000    1.000
    N252     N        0.38640    0.11360    0.25000    1.000
    Cu61     Cu       0.80650    0.05650    0.00000    1.000
    N253     N        0.86360    0.11360    0.00000    1.000
    Cu62     Cu       0.80650    0.55650    0.50000    1.000
    N254     N        0.86360    0.61360    0.50000    1.000
    Cu63     Cu       0.30650    0.69350    0.25000    1.000
    N255     N        0.36360    0.63640    0.25000    1.000
    Cu64     Cu       0.30650    0.19350    0.75000    1.000
    N256     N        0.36360    0.13640    0.75000    1.000
    Cu65     Cu       0.50000    0.94350    0.19350    1.000
    N257     N        0.50000    0.88640    0.13640    1.000
    Cu66     Cu       0.00000    0.94350    0.69350    1.000
    N258     N        0.00000    0.88640    0.63640    1.000
    Cu67     Cu       0.75000    0.44350    0.55650    1.000
    N259     N        0.75000    0.38640    0.61360    1.000
    Cu68     Cu       0.25000    0.44350    0.05650    1.000
    N260     N        0.25000    0.38640    0.11360    1.000
    Cu69     Cu       0.00000    0.80650    0.05650    1.000
    N261     N        0.00000    0.86360    0.11360    1.000
    Cu70     Cu       0.50000    0.80650    0.55650    1.000
    N262     N        0.50000    0.86360    0.61360    1.000
    Cu71     Cu       0.25000    0.30650    0.69350    1.000
    N263     N        0.25000    0.36360    0.63640    1.000
    Cu72     Cu       0.75000    0.30650    0.19350    1.000
    N264     N        0.75000    0.36360    0.13640    1.000
    Cu73     Cu       0.75000    0.94350    0.05650    1.000
    N265     N        0.75000    0.88640    0.11360    1.000
    Cu74     Cu       0.25000    0.94350    0.55650    1.000
    N266     N        0.25000    0.88640    0.61360    1.000
    Cu75     Cu       0.00000    0.30650    0.55650    1.000
    N267     N        0.00000    0.36360    0.61360    1.000
    Cu76     Cu       0.50000    0.30650    0.05650    1.000
    N268     N        0.50000    0.36360    0.11360    1.000
    Cu77     Cu       0.25000    0.80650    0.19350    1.000
    N269     N        0.25000    0.86360    0.13640    1.000
    Cu78     Cu       0.75000    0.80650    0.69350    1.000
    N270     N        0.75000    0.86360    0.63640    1.000
    Cu79     Cu       0.50000    0.44350    0.69350    1.000
    N271     N        0.50000    0.38640    0.63640    1.000
    Cu80     Cu       0.00000    0.44350    0.19350    1.000
    N272     N        0.00000    0.38640    0.13640    1.000
    Cu81     Cu       0.44350    0.69350    0.50000    1.000
    N273     N        0.38640    0.63640    0.50000    1.000
    Cu82     Cu       0.44350    0.19350    0.00000    1.000
    N274     N        0.38640    0.13640    0.00000    1.000
    Cu83     Cu       0.80650    0.19350    0.25000    1.000
    N275     N        0.86360    0.13640    0.25000    1.000
    Cu84     Cu       0.80650    0.69350    0.75000    1.000
    N276     N        0.86360    0.63640    0.75000    1.000
    Cu85     Cu       0.30650    0.55650    0.00000    1.000
    N277     N        0.36360    0.61360    0.00000    1.000
    Cu86     Cu       0.30650    0.05650    0.50000    1.000
    N278     N        0.36360    0.11360    0.50000    1.000
    Cu87     Cu       0.94350    0.05650    0.75000    1.000
    N279     N        0.88640    0.11360    0.75000    1.000
    Cu88     Cu       0.94350    0.55650    0.25000    1.000
    N280     N        0.88640    0.61360    0.25000    1.000
    Cu89     Cu       0.19350    0.25000    0.80650    1.000
    N281     N        0.13640    0.25000    0.86360    1.000
    Cu90     Cu       0.19350    0.75000    0.30650    1.000
    N282     N        0.13640    0.75000    0.36360    1.000
    Cu91     Cu       0.69350    0.50000    0.44350    1.000
    N283     N        0.63640    0.50000    0.38640    1.000
    Cu92     Cu       0.69350    0.00000    0.94350    1.000
    N284     N        0.63640    0.00000    0.88640    1.000
    Cu93     Cu       0.05650    0.75000    0.94350    1.000
    N285     N        0.11360    0.75000    0.88640    1.000
    Cu94     Cu       0.05650    0.25000    0.44350    1.000
    N286     N        0.11360    0.25000    0.38640    1.000
    Cu95     Cu       0.55650    0.00000    0.30650    1.000
    N287     N        0.61360    0.00000    0.36360    1.000
    Cu96     Cu       0.55650    0.50000    0.80650    1.000
    N288     N        0.61360    0.50000    0.86360    1.000
    O1       O        0.75000    0.50000    0.00000    1.000
    O2       O        0.75000    0.00000    0.50000    1.000
    O3       O        0.50000    0.25000    0.50000    1.000
    O4       O        0.50000    0.75000    0.00000    1.000
    O5       O        0.00000    0.75000    0.50000    1.000
    O6       O        0.00000    0.00000    0.25000    1.000
    O7       O        0.00000    0.50000    0.75000    1.000
    O8       O        0.25000    0.75000    0.75000    1.000
    O9       O        0.25000    0.25000    0.25000    1.000
    O10      O        0.50000    0.50000    0.25000    1.000
    O11      O        0.50000    0.00000    0.75000    1.000
    O12      O        0.25000    0.00000    0.00000    1.000
    O13      O        0.75000    0.25000    0.75000    1.000
    O14      O        0.25000    0.50000    0.50000    1.000
    O15      O        0.00000    0.25000    0.00000    1.000
    O16      O        0.75000    0.75000    0.25000    1.000
    O17      O        0.25000    0.50000    0.00000    1.000
    O18      O        0.25000    0.00000    0.50000    1.000
    O19      O        0.50000    0.75000    0.50000    1.000
    O20      O        0.50000    0.25000    0.00000    1.000
    O21      O        0.00000    0.00000    0.75000    1.000
    O22      O        0.00000    0.50000    0.25000    1.000
    O23      O        0.75000    0.25000    0.25000    1.000
    O24      O        0.75000    0.75000    0.75000    1.000
    O25      O        0.00000    0.25000    0.50000    1.000
    O26      O        0.50000    0.50000    0.75000    1.000
    O27      O        0.75000    0.00000    0.00000    1.000
    O28      O        0.25000    0.75000    0.25000    1.000
    O29      O        0.50000    0.00000    0.25000    1.000
    O30      O        0.75000    0.50000    0.50000    1.000
    O31      O        0.00000    0.75000    0.00000    1.000
    O32      O        0.25000    0.25000    0.75000    1.000
