# CIF file generated by openbabel 3.1.0, see https://openbabel.org
data_I
_chemical_name_common 'image0'
_cell_length_a 16.7094
_cell_length_b 20.2857
_cell_length_c 17.1936
_cell_angle_alpha 90
_cell_angle_beta 99.178
_cell_angle_gamma 90
_space_group_name_H-M_alt 'P 1'
_space_group_name_Hall 'P 1'
loop_
    _symmetry_equiv_pos_as_xyz
    x,y,z
loop_
    _atom_site_label
    _atom_site_type_symbol
    _atom_site_fract_x
    _atom_site_fract_y
    _atom_site_fract_z
    _atom_site_occupancy
    Mn1      Mn       0.24957    0.33421    0.03614    1.000
    Mn2      Mn       0.44546    0.37409    0.13934    1.000
    Mn3      Mn       0.05220    0.35504    0.91695    1.000
    S1       S        0.22833    0.72822    0.95422    1.000
    S2       S        0.34295    0.43047    0.55568    1.000
    S3       S        0.04115    0.48581    0.39286    1.000
    N1       N        0.42160    0.44780    0.23310    1.000
    O1       O        0.33170    0.75731    0.50590    1.000
    O2       O        0.84287    0.23383    0.51927    1.000
    O3       O        0.32283    0.41845    0.07214    1.000
    O4       O        0.25116    0.36620    0.91521    1.000
    O5       O        0.24656    0.80952    0.33953    1.000
    O6       O        0.13857    0.39339    0.04128    1.000
    O7       O        0.11598    0.80824    0.29913    1.000
    O8       O        0.96646    0.19589    0.55410    1.000
    O9       O        0.44038    0.45800    0.06000    1.000
    O10      O        0.13072    0.38992    0.84886    1.000
    O11      O        0.44516    0.75258    0.58750    1.000
    O12      O        0.00892    0.39609    0.01387    1.000
    O13      O        0.15162    0.72476    0.90673    1.000
    O14      O        0.28917    0.76819    0.92893    1.000
    O15      O        0.42090    0.40159    0.56410    1.000
    O16      O        0.28450    0.41394    0.48892    1.000
    O17      O        0.97895    0.53390    0.38913    1.000
    O18      O        0.11831    0.50004    0.43597    1.000
    C1       C        0.36620    0.46260    0.04840    1.000
    C2       C        0.32880    0.52470    0.01300    1.000
    C3       C        0.24780    0.53480    0.00730    1.000
    H1       H        0.21400    0.50080    0.01840    1.000
    C4       C        0.21570    0.59660    0.98480    1.000
    H2       H        0.16020    0.60380    0.98010    1.000
    C5       C        0.26620    0.64690    0.96960    1.000
    C6       C        0.34700    0.63660    0.97220    1.000
    H3       H        0.38060    0.67030    0.95990    1.000
    C7       C        0.37800    0.57470    0.99360    1.000
    H4       H        0.43300    0.56680    0.99480    1.000
    C8       C        0.21650    0.75296    0.05110    1.000
    C9       C        0.14080    0.75840    0.07010    1.000
    H5       H        0.09540    0.75080    0.03240    1.000
    C10      C        0.13230    0.77550    0.14670    1.000
    H6       H        0.08040    0.78010    0.15930    1.000
    C11      C        0.19780    0.78580    0.20410    1.000
    C12      C        0.27420    0.78030    0.18390    1.000
    H7       H        0.31970    0.78730    0.22170    1.000
    C13      C        0.28330    0.76420    0.10700    1.000
    H8       H        0.33490    0.76110    0.09360    1.000
    C14      C        0.18660    0.80290    0.28780    1.000
    C15      C        0.20540    0.38250    0.85480    1.000
    C16      C        0.23950    0.39400    0.77980    1.000
    C17      C        0.31960    0.38290    0.77800    1.000
    H9       H        0.35320    0.36860    0.82330    1.000
    C18      C        0.35120    0.39250    0.70990    1.000
    H10      H        0.40580    0.38430    0.70900    1.000
    C19      C        0.30210    0.41430    0.64290    1.000
    C20      C        0.22240    0.42440    0.64200    1.000
    H11      H        0.18920    0.43830    0.59630    1.000
    C21      C        0.19100    0.41370    0.71080    1.000
    H12      H        0.13580    0.41980    0.71060    1.000
    C22      C        0.35430    0.51760    0.55670    1.000
    C23      C        0.29420    0.55670    0.51830    1.000
    H13      H        0.24600    0.53800    0.49340    1.000
    C24      C        0.30520    0.62370    0.51650    1.000
    H14      H        0.26440    0.65010    0.48950    1.000
    C25      C        0.37490    0.65260    0.55370    1.000
    C26      C        0.43370    0.61260    0.59390    1.000
    H15      H        0.48090    0.63120    0.62090    1.000
    C27      C        0.42360    0.54500    0.59460    1.000
    H16      H        0.46440    0.51830    0.62100    1.000
    C28      C        0.38410    0.72650    0.54820    1.000
    C29      C        0.07200    0.40440    0.06110    1.000
    C30      C        0.06710    0.42820    0.14290    1.000
    C31      C        0.99480    0.45290    0.15940    1.000
    H17      H        0.95040    0.45640    0.11960    1.000
    C32      C        0.98840    0.47240    0.23550    1.000
    H18      H        0.94000    0.49030    0.24600    1.000
    C33      C        0.05200    0.46560    0.29470    1.000
    C34      C        0.12450    0.44170    0.27910    1.000
    H19      H        0.16860    0.43750    0.31940    1.000
    C35      C        0.13150    0.42370    0.20260    1.000
    H20      H        0.18100    0.40830    0.19170    1.000
    C36      C        0.00630    0.41200    0.42990    1.000
    C37      C        0.06000    0.36680    0.47010    1.000
    H21      H        0.11560    0.37440    0.47670    1.000
    C38      C        0.03010    0.31060    0.50000    1.000
    H22      H        0.06570    0.28040    0.52760    1.000
    C39      C        0.94850    0.29870    0.48930    1.000
    C40      C        0.89700    0.34430    0.44840    1.000
    H23      H        0.84150    0.33610    0.44030    1.000
    C41      C        0.92490    0.40100    0.41930    1.000
    H24      H        0.88900    0.43160    0.39280    1.000
    C42      C        0.91660    0.23740    0.52370    1.000
    C43      C        0.39420    0.47050    0.28410    1.000
    C44      C        0.36190    0.49360    0.35110    1.000
    H25      H        0.30510    0.48340    0.34480    1.000
    H26      H        0.36920    0.54040    0.35590    1.000
    H27      H        0.38950    0.47240    0.39770    1.000
    Mn4      Mn       0.25043    0.83421    0.46386    1.000
    Mn5      Mn       0.05454    0.87409    0.36066    1.000
    Mn6      Mn       0.44780    0.85504    0.58305    1.000
    S4       S        0.27167    0.22822    0.54578    1.000
    S5       S        0.15705    0.93047    0.94432    1.000
    S6       S        0.45885    0.98581    0.10714    1.000
    N2       N        0.07840    0.94780    0.26690    1.000
    O19      O        0.16830    0.25731    0.99410    1.000
    O20      O        0.65713    0.73383    0.98073    1.000
    O21      O        0.17717    0.91845    0.42786    1.000
    O22      O        0.24884    0.86620    0.58479    1.000
    O23      O        0.25344    0.30952    0.16047    1.000
    O24      O        0.36143    0.89339    0.45872    1.000
    O25      O        0.38402    0.30824    0.20087    1.000
    O26      O        0.53354    0.69589    0.94590    1.000
    O27      O        0.05962    0.95800    0.44000    1.000
    O28      O        0.36928    0.88992    0.65114    1.000
    O29      O        0.05484    0.25258    0.91250    1.000
    O30      O        0.49108    0.89609    0.48613    1.000
    O31      O        0.34838    0.22476    0.59327    1.000
    O32      O        0.21083    0.26819    0.57107    1.000
    O33      O        0.07910    0.90159    0.93590    1.000
    O34      O        0.21550    0.91394    0.01108    1.000
    O35      O        0.52105    0.03390    0.11087    1.000
    O36      O        0.38169    0.00004    0.06403    1.000
    C45      C        0.13380    0.96260    0.45160    1.000
    C46      C        0.17120    0.02470    0.48700    1.000
    C47      C        0.25220    0.03480    0.49270    1.000
    H28      H        0.28600    0.00080    0.48160    1.000
    C48      C        0.28430    0.09660    0.51520    1.000
    H29      H        0.33980    0.10380    0.51990    1.000
    C49      C        0.23380    0.14690    0.53040    1.000
    C50      C        0.15300    0.13660    0.52780    1.000
    H30      H        0.11940    0.17030    0.54010    1.000
    C51      C        0.12200    0.07470    0.50640    1.000
    H31      H        0.06700    0.06680    0.50520    1.000
    C52      C        0.28350    0.25296    0.44890    1.000
    C53      C        0.35920    0.25840    0.42990    1.000
    H32      H        0.40460    0.25080    0.46760    1.000
    C54      C        0.36770    0.27550    0.35330    1.000
    H33      H        0.41960    0.28010    0.34070    1.000
    C55      C        0.30220    0.28580    0.29590    1.000
    C56      C        0.22580    0.28030    0.31610    1.000
    H34      H        0.18030    0.28730    0.27830    1.000
    C57      C        0.21670    0.26420    0.39300    1.000
    H35      H        0.16510    0.26110    0.40640    1.000
    C58      C        0.31340    0.30290    0.21220    1.000
    C59      C        0.29460    0.88250    0.64520    1.000
    C60      C        0.26050    0.89400    0.72020    1.000
    C61      C        0.18040    0.88290    0.72200    1.000
    H36      H        0.14680    0.86860    0.67670    1.000
    C62      C        0.14880    0.89250    0.79010    1.000
    H37      H        0.09420    0.88430    0.79100    1.000
    C63      C        0.19790    0.91430    0.85710    1.000
    C64      C        0.27760    0.92440    0.85800    1.000
    H38      H        0.31080    0.93830    0.90370    1.000
    C65      C        0.30900    0.91370    0.78920    1.000
    H39      H        0.36420    0.91980    0.78940    1.000
    C66      C        0.14570    0.01760    0.94330    1.000
    C67      C        0.20580    0.05670    0.98170    1.000
    H40      H        0.25400    0.03800    0.00660    1.000
    C68      C        0.19480    0.12370    0.98350    1.000
    H41      H        0.23560    0.15010    0.01050    1.000
    C69      C        0.12510    0.15260    0.94630    1.000
    C70      C        0.06630    0.11260    0.90610    1.000
    H42      H        0.01910    0.13120    0.87910    1.000
    C71      C        0.07640    0.04500    0.90540    1.000
    H43      H        0.03560    0.01830    0.87900    1.000
    C72      C        0.11590    0.22650    0.95180    1.000
    C73      C        0.42800    0.90440    0.43890    1.000
    C74      C        0.43290    0.92820    0.35710    1.000
    C75      C        0.50520    0.95290    0.34060    1.000
    H44      H        0.54960    0.95640    0.38040    1.000
    C76      C        0.51160    0.97240    0.26450    1.000
    H45      H        0.56000    0.99030    0.25400    1.000
    C77      C        0.44800    0.96560    0.20530    1.000
    C78      C        0.37550    0.94170    0.22090    1.000
    H46      H        0.33140    0.93750    0.18060    1.000
    C79      C        0.36850    0.92370    0.29740    1.000
    H47      H        0.31900    0.90830    0.30830    1.000
    C80      C        0.49370    0.91200    0.07010    1.000
    C81      C        0.44000    0.86680    0.02990    1.000
    H48      H        0.38440    0.87440    0.02330    1.000
    C82      C        0.46990    0.81060    0.00000    1.000
    H49      H        0.43430    0.78040    0.97240    1.000
    C83      C        0.55150    0.79870    0.01070    1.000
    C84      C        0.60300    0.84430    0.05160    1.000
    H50      H        0.65850    0.83610    0.05970    1.000
    C85      C        0.57510    0.90100    0.08070    1.000
    H51      H        0.61100    0.93160    0.10720    1.000
    C86      C        0.58340    0.73740    0.97630    1.000
    C87      C        0.10580    0.97050    0.21590    1.000
    C88      C        0.13810    0.99360    0.14890    1.000
    H52      H        0.19490    0.98340    0.15520    1.000
    H53      H        0.13080    0.04040    0.14410    1.000
    H54      H        0.11050    0.97240    0.10230    1.000
    Mn7      Mn       0.75043    0.66579    0.96386    1.000
    Mn8      Mn       0.55454    0.62591    0.86066    1.000
    Mn9      Mn       0.94780    0.64496    0.08305    1.000
    S7       S        0.77167    0.27178    0.04578    1.000
    S8       S        0.65705    0.56953    0.44432    1.000
    S9       S        0.95885    0.51419    0.60714    1.000
    N3       N        0.57840    0.55220    0.76690    1.000
    O37      O        0.66830    0.24269    0.49410    1.000
    O38      O        0.15713    0.76617    0.48073    1.000
    O39      O        0.67717    0.58155    0.92786    1.000
    O40      O        0.74884    0.63380    0.08479    1.000
    O41      O        0.75344    0.19048    0.66047    1.000
    O42      O        0.86143    0.60661    0.95872    1.000
    O43      O        0.88402    0.19176    0.70087    1.000
    O44      O        0.03354    0.80411    0.44590    1.000
    O45      O        0.55962    0.54200    0.94000    1.000
    O46      O        0.86928    0.61008    0.15114    1.000
    O47      O        0.55484    0.24742    0.41250    1.000
    O48      O        0.99108    0.60391    0.98613    1.000
    O49      O        0.84838    0.27524    0.09327    1.000
    O50      O        0.71083    0.23181    0.07107    1.000
    O51      O        0.57910    0.59841    0.43590    1.000
    O52      O        0.71550    0.58606    0.51108    1.000
    O53      O        0.02105    0.46610    0.61087    1.000
    O54      O        0.88169    0.49996    0.56403    1.000
    C89      C        0.63380    0.53740    0.95160    1.000
    C90      C        0.67120    0.47530    0.98700    1.000
    C91      C        0.75220    0.46520    0.99270    1.000
    H55      H        0.78600    0.49920    0.98160    1.000
    C92      C        0.78430    0.40340    0.01520    1.000
    H56      H        0.83980    0.39620    0.01990    1.000
    C93      C        0.73380    0.35310    0.03040    1.000
    C94      C        0.65300    0.36340    0.02780    1.000
    H57      H        0.61940    0.32970    0.04010    1.000
    C95      C        0.62200    0.42530    0.00640    1.000
    H58      H        0.56700    0.43320    0.00520    1.000
    C96      C        0.78350    0.24704    0.94890    1.000
    C97      C        0.85920    0.24160    0.92990    1.000
    H59      H        0.90460    0.24920    0.96760    1.000
    C98      C        0.86770    0.22450    0.85330    1.000
    H60      H        0.91960    0.21990    0.84070    1.000
    C99      C        0.80220    0.21420    0.79590    1.000
    C100     C        0.72580    0.21970    0.81610    1.000
    H61      H        0.68030    0.21270    0.77830    1.000
    C101     C        0.71670    0.23580    0.89300    1.000
    H62      H        0.66510    0.23890    0.90640    1.000
    C102     C        0.81340    0.19710    0.71220    1.000
    C103     C        0.79460    0.61750    0.14520    1.000
    C104     C        0.76050    0.60600    0.22020    1.000
    C105     C        0.68040    0.61710    0.22200    1.000
    H63      H        0.64680    0.63140    0.17670    1.000
    C106     C        0.64880    0.60750    0.29010    1.000
    H64      H        0.59420    0.61570    0.29100    1.000
    C107     C        0.69790    0.58570    0.35710    1.000
    C108     C        0.77760    0.57560    0.35800    1.000
    H65      H        0.81080    0.56170    0.40370    1.000
    C109     C        0.80900    0.58630    0.28920    1.000
    H66      H        0.86420    0.58020    0.28940    1.000
    C110     C        0.64570    0.48240    0.44330    1.000
    C111     C        0.70580    0.44330    0.48170    1.000
    H67      H        0.75400    0.46200    0.50660    1.000
    C112     C        0.69480    0.37630    0.48350    1.000
    H68      H        0.73560    0.34990    0.51050    1.000
    C113     C        0.62510    0.34740    0.44630    1.000
    C114     C        0.56630    0.38740    0.40610    1.000
    H69      H        0.51910    0.36880    0.37910    1.000
    C115     C        0.57640    0.45500    0.40540    1.000
    H70      H        0.53560    0.48170    0.37900    1.000
    C116     C        0.61590    0.27350    0.45180    1.000
    C117     C        0.92800    0.59560    0.93890    1.000
    C118     C        0.93290    0.57180    0.85710    1.000
    C119     C        0.00520    0.54710    0.84060    1.000
    H71      H        0.04960    0.54360    0.88040    1.000
    C120     C        0.01160    0.52760    0.76450    1.000
    H72      H        0.06000    0.50970    0.75400    1.000
    C121     C        0.94800    0.53440    0.70530    1.000
    C122     C        0.87550    0.55830    0.72090    1.000
    H73      H        0.83140    0.56250    0.68060    1.000
    C123     C        0.86850    0.57630    0.79740    1.000
    H74      H        0.81900    0.59170    0.80830    1.000
    C124     C        0.99370    0.58800    0.57010    1.000
    C125     C        0.94000    0.63320    0.52990    1.000
    H75      H        0.88440    0.62560    0.52330    1.000
    C126     C        0.96990    0.68940    0.50000    1.000
    H76      H        0.93430    0.71960    0.47240    1.000
    C127     C        0.05150    0.70130    0.51070    1.000
    C128     C        0.10300    0.65570    0.55160    1.000
    H77      H        0.15850    0.66390    0.55970    1.000
    C129     C        0.07510    0.59900    0.58070    1.000
    H78      H        0.11100    0.56840    0.60720    1.000
    C130     C        0.08340    0.76260    0.47630    1.000
    C131     C        0.60580    0.52950    0.71590    1.000
    C132     C        0.63810    0.50640    0.64890    1.000
    H79      H        0.69490    0.51660    0.65520    1.000
    H80      H        0.63080    0.45960    0.64410    1.000
    H81      H        0.61050    0.52760    0.60230    1.000
    Mn10     Mn       0.74957    0.16579    0.53614    1.000
    Mn11     Mn       0.94546    0.12591    0.63934    1.000
    Mn12     Mn       0.55220    0.14496    0.41695    1.000
    S10      S        0.72833    0.77178    0.45422    1.000
    S11      S        0.84295    0.06953    0.05568    1.000
    S12      S        0.54115    0.01419    0.89286    1.000
    N4       N        0.92160    0.05220    0.73310    1.000
    O55      O        0.83170    0.74269    0.00590    1.000
    O56      O        0.34287    0.26617    0.01927    1.000
    O57      O        0.82283    0.08155    0.57214    1.000
    O58      O        0.75116    0.13380    0.41521    1.000
    O59      O        0.74656    0.69048    0.83953    1.000
    O60      O        0.63857    0.10661    0.54128    1.000
    O61      O        0.61598    0.69176    0.79913    1.000
    O62      O        0.46646    0.30411    0.05410    1.000
    O63      O        0.94038    0.04200    0.56000    1.000
    O64      O        0.63072    0.11008    0.34886    1.000
    O65      O        0.94516    0.74742    0.08750    1.000
    O66      O        0.50892    0.10391    0.51387    1.000
    O67      O        0.65162    0.77524    0.40673    1.000
    O68      O        0.78917    0.73181    0.42893    1.000
    O69      O        0.92090    0.09841    0.06410    1.000
    O70      O        0.78450    0.08606    0.98892    1.000
    O71      O        0.47895    0.96610    0.88913    1.000
    O72      O        0.61831    0.99996    0.93597    1.000
    C133     C        0.86620    0.03740    0.54840    1.000
    C134     C        0.82880    0.97530    0.51300    1.000
    C135     C        0.74780    0.96520    0.50730    1.000
    H82      H        0.71400    0.99920    0.51840    1.000
    C136     C        0.71570    0.90340    0.48480    1.000
    H83      H        0.66020    0.89620    0.48010    1.000
    C137     C        0.76620    0.85310    0.46960    1.000
    C138     C        0.84700    0.86340    0.47220    1.000
    H84      H        0.88060    0.82970    0.45990    1.000
    C139     C        0.87800    0.92530    0.49360    1.000
    H85      H        0.93300    0.93320    0.49480    1.000
    C140     C        0.71650    0.74704    0.55110    1.000
    C141     C        0.64080    0.74160    0.57010    1.000
    H86      H        0.59540    0.74920    0.53240    1.000
    C142     C        0.63230    0.72450    0.64670    1.000
    H87      H        0.58040    0.71990    0.65930    1.000
    C143     C        0.69780    0.71420    0.70410    1.000
    C144     C        0.77420    0.71970    0.68390    1.000
    H88      H        0.81970    0.71270    0.72170    1.000
    C145     C        0.78330    0.73580    0.60700    1.000
    H89      H        0.83490    0.73890    0.59360    1.000
    C146     C        0.68660    0.69710    0.78780    1.000
    C147     C        0.70540    0.11750    0.35480    1.000
    C148     C        0.73950    0.10600    0.27980    1.000
    C149     C        0.81960    0.11710    0.27800    1.000
    H90      H        0.85320    0.13140    0.32330    1.000
    C150     C        0.85120    0.10750    0.20990    1.000
    H91      H        0.90580    0.11570    0.20900    1.000
    C151     C        0.80210    0.08570    0.14290    1.000
    C152     C        0.72240    0.07560    0.14200    1.000
    H92      H        0.68920    0.06170    0.09630    1.000
    C153     C        0.69100    0.08630    0.21080    1.000
    H93      H        0.63580    0.08020    0.21060    1.000
    C154     C        0.85430    0.98240    0.05670    1.000
    C155     C        0.79420    0.94330    0.01830    1.000
    H94      H        0.74600    0.96200    0.99340    1.000
    C156     C        0.80520    0.87630    0.01650    1.000
    H95      H        0.76440    0.84990    0.98950    1.000
    C157     C        0.87490    0.84740    0.05370    1.000
    C158     C        0.93370    0.88740    0.09390    1.000
    H96      H        0.98090    0.86880    0.12090    1.000
    C159     C        0.92360    0.95500    0.09460    1.000
    H97      H        0.96440    0.98170    0.12100    1.000
    C160     C        0.88410    0.77350    0.04820    1.000
    C161     C        0.57200    0.09560    0.56110    1.000
    C162     C        0.56710    0.07180    0.64290    1.000
    C163     C        0.49480    0.04710    0.65940    1.000
    H98      H        0.45040    0.04360    0.61960    1.000
    C164     C        0.48840    0.02760    0.73550    1.000
    H99      H        0.44000    0.00970    0.74600    1.000
    C165     C        0.55200    0.03440    0.79470    1.000
    C166     C        0.62450    0.05830    0.77910    1.000
    H100     H        0.66860    0.06250    0.81940    1.000
    C167     C        0.63150    0.07630    0.70260    1.000
    H101     H        0.68100    0.09170    0.69170    1.000
    C168     C        0.50630    0.08800    0.92990    1.000
    C169     C        0.56000    0.13320    0.97010    1.000
    H102     H        0.61560    0.12560    0.97670    1.000
    C170     C        0.53010    0.18940    0.00000    1.000
    H103     H        0.56570    0.21960    0.02760    1.000
    C171     C        0.44850    0.20130    0.98930    1.000
    C172     C        0.39700    0.15570    0.94840    1.000
    H104     H        0.34150    0.16390    0.94030    1.000
    C173     C        0.42490    0.09900    0.91930    1.000
    H105     H        0.38900    0.06840    0.89280    1.000
    C174     C        0.41660    0.26260    0.02370    1.000
    C175     C        0.89420    0.02950    0.78410    1.000
    C176     C        0.86190    0.00640    0.85110    1.000
    H106     H        0.80510    0.01660    0.84480    1.000
    H107     H        0.86920    0.95960    0.85590    1.000
    H108     H        0.88950    0.02760    0.89770    1.000
