# CIF file generated by openbabel 3.1.0, see https://openbabel.org
data_I
_chemical_name_common 'cm303749m_si_002_clean'
_cell_length_a 11.6533
_cell_length_b 15.4648
_cell_length_c 15.4648
_cell_angle_alpha 90
_cell_angle_beta 90.205
_cell_angle_gamma 90
_space_group_name_H-M_alt 'P 1'
_space_group_name_Hall 'P 1'
loop_
    _symmetry_equiv_pos_as_xyz
    x,y,z
loop_
    _atom_site_label
    _atom_site_type_symbol
    _atom_site_fract_x
    _atom_site_fract_y
    _atom_site_fract_z
    _atom_site_occupancy
    Zn1      Zn       0.51089    0.50000    0.59645    1.000
    Zn2      Zn       0.48911    0.50000    0.40355    1.000
    H1       H        0.79774    0.33430    0.61692    1.000
    H2       H        0.34224    0.50000    0.72380    1.000
    H3       H        0.20163    0.13946    0.63782    1.000
    H4       H        0.34947    0.50000    0.88210    1.000
    H5       H        0.79037    0.00000    0.47276    1.000
    H6       H        0.32433    0.73120    0.63841    1.000
    H7       H        0.67567    0.26880    0.36159    1.000
    H8       H        0.79837    0.13946    0.36218    1.000
    H9       H        0.79774    0.66570    0.61692    1.000
    H10      H        0.79837    0.86054    0.36218    1.000
    H11      H        0.20226    0.66570    0.38308    1.000
    H12      H        0.27961    0.50000    0.13057    1.000
    H13      H        0.72039    0.50000    0.86943    1.000
    H14      H        0.67567    0.73120    0.36159    1.000
    H15      H        0.65053    0.50000    0.11790    1.000
    H16      H        0.20163    0.86054    0.63782    1.000
    H17      H        0.29508    0.50000    0.29041    1.000
    H18      H        0.07801    0.20613    0.38370    1.000
    H19      H        0.70492    0.50000    0.70959    1.000
    H20      H        0.92199    0.20613    0.61630    1.000
    H21      H        0.07801    0.79387    0.38370    1.000
    H22      H        0.65776    0.50000    0.27620    1.000
    H23      H        0.20226    0.33430    0.38308    1.000
    H24      H        0.92199    0.79387    0.61630    1.000
    H25      H        0.20963    0.00000    0.52724    1.000
    H26      H        0.32433    0.26880    0.63841    1.000
    C1       C        0.36294    0.50000    0.16180    1.000
    C2       C        0.12947    0.83741    0.51092    1.000
    C3       C        0.72650    0.31249    0.48916    1.000
    C4       C        0.86959    0.78029    0.55994    1.000
    C5       C        0.57585    0.50000    0.24307    1.000
    C6       C        0.79802    0.70690    0.56030    1.000
    C7       C        0.79991    0.81781    0.41764    1.000
    C8       C        0.88239    0.00000    0.48324    1.000
    C9       C        0.37157    0.50000    0.25097    1.000
    C10      C        0.72994    0.74343    0.41724    1.000
    C11      C        0.93986    0.91962    0.49188    1.000
    C12      C        0.12947    0.16259    0.51092    1.000
    C13      C        0.13041    0.78029    0.44006    1.000
    C14      C        0.20009    0.81781    0.58236    1.000
    C15      C        0.42415    0.50000    0.75693    1.000
    C16      C        0.72994    0.25657    0.41724    1.000
    C17      C        0.06014    0.08038    0.50812    1.000
    C18      C        0.11761    0.00000    0.51676    1.000
    C19      C        0.87053    0.83741    0.48908    1.000
    C20      C        0.06014    0.91962    0.50812    1.000
    C21      C        0.20009    0.18219    0.58236    1.000
    C22      C        0.53646    0.50000    0.88644    1.000
    C23      C        0.57126    0.50000    0.15421    1.000
    C24      C        0.86959    0.21971    0.55994    1.000
    C25      C        0.63706    0.50000    0.83820    1.000
    C26      C        0.42874    0.50000    0.84579    1.000
    C27      C        0.79991    0.18219    0.41764    1.000
    C28      C        0.13041    0.21971    0.44006    1.000
    C29      C        0.93986    0.08038    0.49188    1.000
    C30      C        0.20198    0.29310    0.43970    1.000
    C31      C        0.27006    0.25657    0.58276    1.000
    C32      C        0.87053    0.16259    0.48908    1.000
    C33      C        0.64357    0.61312    0.49258    1.000
    C34      C        0.27006    0.74343    0.58276    1.000
    C35      C        0.20198    0.70690    0.43970    1.000
    C36      C        0.72650    0.68751    0.48916    1.000
    C37      C        0.27350    0.31249    0.51084    1.000
    C38      C        0.27350    0.68751    0.51084    1.000
    C39      C        0.64357    0.38688    0.49258    1.000
    C40      C        0.79802    0.29310    0.56030    1.000
    C41      C        0.46354    0.50000    0.11356    1.000
    C42      C        0.62843    0.50000    0.74903    1.000
    C43      C        0.35643    0.61312    0.50742    1.000
    C44      C        0.35643    0.38688    0.50742    1.000
    N1       N        0.52307    0.50000    0.71147    1.000
    N2       N        0.45512    0.50000    0.02285    1.000
    N3       N        0.54488    0.50000    0.97715    1.000
    N4       N        0.47693    0.50000    0.28853    1.000
    O1       O        0.40178    0.41641    0.57619    1.000
    O2       O        0.61538    0.41847    0.56510    1.000
    O3       O        0.40178    0.58359    0.57619    1.000
    O4       O        0.59822    0.41641    0.42381    1.000
    O5       O        0.61538    0.58153    0.56510    1.000
    O6       O        0.38462    0.58153    0.43490    1.000
    O7       O        0.59822    0.58359    0.42381    1.000
    O8       O        0.38462    0.41847    0.43490    1.000
