# CIF file generated by openbabel 3.1.0, see https://openbabel.org
data_I
_chemical_name_common 'LODKIA_clean'
_cell_length_a 9.1549
_cell_length_b 15.4086
_cell_length_c 25.4519
_cell_angle_alpha 80.7761
_cell_angle_beta 79.6392
_cell_angle_gamma 72.7183
_space_group_name_H-M_alt 'P 1'
_space_group_name_Hall 'P 1'
loop_
    _symmetry_equiv_pos_as_xyz
    x,y,z
loop_
    _atom_site_label
    _atom_site_type_symbol
    _atom_site_fract_x
    _atom_site_fract_y
    _atom_site_fract_z
    _atom_site_occupancy
    Cd1      Cd       0.15323    0.37655    0.49503    1.000
    Cd2      Cd       0.02481    0.12345    0.00497    1.000
    Cd3      Cd       0.84677    0.62345    0.50497    1.000
    Cd4      Cd       0.97519    0.87655    0.99503    1.000
    H1       H        0.99330    0.21030    0.66190    1.000
    H2       H        0.63000    0.81120    0.73940    1.000
    H3       H        0.70640    0.73010    0.86790    1.000
    H4       H        0.45640    0.99910    0.69050    1.000
    H5       H        0.12870    0.07970    0.82170    1.000
    H6       H        0.29360    0.26990    0.13210    1.000
    H7       H        0.87130    0.92030    0.17830    1.000
    H8       H        0.81940    0.31120    0.23940    1.000
    H9       H        0.87200    0.23010    0.16590    1.000
    H10      H        0.14600    0.50090    0.80950    1.000
    H11      H        0.30440    0.76990    0.63210    1.000
    H12      H        0.56650    0.21670    0.17210    1.000
    H13      H        0.04470    0.71670    0.67210    1.000
    H14      H        0.55840    0.90130    0.38710    1.000
    H15      H        0.84680    0.59870    0.11290    1.000
    H16      H        0.86550    0.28970    0.83810    1.000
    H17      H        0.15320    0.40130    0.88710    1.000
    H18      H        0.79450    0.14280    0.29640    1.000
    H19      H        0.23370    0.35720    0.20360    1.000
    H20      H        0.76630    0.64280    0.79640    1.000
    H21      H        0.43350    0.78330    0.82790    1.000
    H22      H        0.12800    0.76990    0.83410    1.000
    H23      H        0.13450    0.71030    0.16190    1.000
    H24      H        0.95530    0.28330    0.32790    1.000
    H25      H        0.44160    0.09870    0.61290    1.000
    H26      H        0.85400    0.49910    0.19050    1.000
    H27      H        0.37000    0.18880    0.26060    1.000
    H28      H        0.98720    0.88760    0.25960    1.000
    H29      H        0.69560    0.23010    0.36790    1.000
    H30      H        0.54360    0.00090    0.30950    1.000
    H31      H        0.13440    0.61240    0.24040    1.000
    H32      H        0.03010    0.42030    0.67830    1.000
    H33      H        0.00670    0.78970    0.33810    1.000
    H34      H        0.18060    0.68880    0.76060    1.000
    H35      H        0.96990    0.57970    0.32170    1.000
    H36      H        0.26800    0.26990    0.33410    1.000
    H37      H        0.01280    0.11240    0.74040    1.000
    H38      H        0.73200    0.73010    0.66590    1.000
    H39      H        0.86560    0.38760    0.75960    1.000
    H40      H        0.20550    0.85720    0.70360    1.000
    C1       C        0.92350    0.33160    0.83240    1.000
    C2       C        0.05420    0.53040    0.62680    1.000
    C3       C        0.40190    0.30830    0.40690    1.000
    C4       C        0.37100    0.77940    0.65280    1.000
    C5       C        0.01160    0.60830    0.72250    1.000
    C6       C        0.88290    0.80830    0.90690    1.000
    C7       C        0.33830    0.82090    0.92710    1.000
    C8       C        0.08630    0.67910    0.57290    1.000
    C9       C        0.94580    0.46960    0.37320    1.000
    C10      C        0.66170    0.17910    0.07290    1.000
    C11      C        0.76340    0.95510    0.27630    1.000
    C12      C        0.91410    0.30430    0.21750    1.000
    C13      C        0.01770    0.27020    0.92180    1.000
    C14      C        0.63030    0.15710    0.17310    1.000
    C15      C        0.99480    0.54490    0.22370    1.000
    C16      C        0.62570    0.75480    0.67340    1.000
    C17      C        0.35400    0.10170    0.63830    1.000
    C18      C        0.59230    0.15740    0.27100    1.000
    C19      C        0.08590    0.69570    0.78250    1.000
    C20      C        0.81050    0.98070    0.17690    1.000
    C21      C        0.98770    0.48290    0.27550    1.000
    C22      C        0.91250    0.83160    0.33240    1.000
    C23      C        0.56410    0.80430    0.71750    1.000
    C24      C        0.07650    0.66840    0.16760    1.000
    C25      C        0.21730    0.16510    0.62890    1.000
    C26      C        0.16140    0.33070    0.19650    1.000
    C27      C        0.08720    0.24240    0.14060    1.000
    C28      C        0.65760    0.10830    0.22250    1.000
    C29      C        0.07500    0.48540    0.57680    1.000
    C30      C        0.98870    0.66510    0.12890    1.000
    C31      C        0.20970    0.22980    0.57820    1.000
    C32      C        0.25390    0.98290    0.77550    1.000
    C33      C        0.00520    0.45510    0.77630    1.000
    C34      C        0.36970    0.84290    0.82690    1.000
    C35      C        0.86280    0.98540    0.07680    1.000
    C36      C        0.96810    0.51930    0.32310    1.000
    C37      C        0.07720    0.60900    0.21440    1.000
    C38      C        0.74610    0.01710    0.22450    1.000
    C39      C        0.59810    0.69170    0.59310    1.000
    C40      C        0.90600    0.60170    0.13830    1.000
    C41      C        0.34240    0.89170    0.77750    1.000
    C42      C        0.98840    0.39170    0.27750    1.000
    C43      C        0.62900    0.22060    0.34720    1.000
    C44      C        0.78270    0.83490    0.37110    1.000
    C45      C        0.40770    0.84260    0.72900    1.000
    C46      C        0.92280    0.39100    0.78560    1.000
    C47      C        0.01130    0.33490    0.87110    1.000
    C48      C        0.97930    0.65740    0.77100    1.000
    C49      C        0.63700    0.95810    0.31490    1.000
    C50      C        0.13720    0.01460    0.92320    1.000
    C51      C        0.06050    0.62070    0.62470    1.000
    C52      C        0.18950    0.01930    0.82310    1.000
    C53      C        0.78860    0.03040    0.12680    1.000
    C54      C        0.36300    0.04190    0.68510    1.000
    C55      C        0.83860    0.66930    0.80350    1.000
    C56      C        0.43590    0.19570    0.28250    1.000
    C57      C        0.91000    0.54190    0.18510    1.000
    C58      C        0.23660    0.04490    0.72370    1.000
    C59      C        0.91280    0.75760    0.85940    1.000
    C60      C        0.03190    0.48070    0.67690    1.000
    C61      C        0.30590    0.87930    0.87530    1.000
    C62      C        0.02070    0.34260    0.22900    1.000
    C63      C        0.98230    0.72980    0.07820    1.000
    C64      C        0.03950    0.65710    0.67310    1.000
    C65      C        0.09400    0.39830    0.86170    1.000
    C66      C        0.09940    0.10900    0.71440    1.000
    C67      C        0.08750    0.16840    0.66760    1.000
    C68      C        0.94610    0.25480    0.17340    1.000
    C69      C        0.47020    0.25760    0.35940    1.000
    C70      C        0.21140    0.96960    0.87320    1.000
    C71      C        0.91370    0.32090    0.42710    1.000
    C72      C        0.37430    0.24520    0.32660    1.000
    C73      C        0.19680    0.27940    0.15280    1.000
    C74      C        0.90060    0.89100    0.28560    1.000
    C75      C        0.92500    0.51460    0.42320    1.000
    C76      C        0.69410    0.12070    0.12470    1.000
    C77      C        0.93950    0.37930    0.37530    1.000
    C78      C        0.96050    0.34290    0.32690    1.000
    C79      C        0.80320    0.72060    0.84720    1.000
    C80      C        0.52980    0.74240    0.64060    1.000
    C81      C        0.09000    0.45810    0.81490    1.000
    C82      C        0.79030    0.77020    0.42180    1.000
    C83      C        0.11710    0.19170    0.09310    1.000
    C84      C        0.05390    0.74520    0.82660    1.000
    C85      C        0.31140    0.83070    0.69650    1.000
    C86      C        0.01230    0.51710    0.72450    1.000
    C87      C        0.68860    0.16930    0.30350    1.000
    C88      C        0.64600    0.89830    0.36170    1.000
    O1       O        0.92907    0.34837    0.47049    1.000
    O2       O        0.04391    0.51772    0.44126    1.000
    O3       O        0.51740    0.65960    0.57100    1.000
    O4       O        0.74793    0.15163    0.02951    1.000
    O5       O        0.21482    0.05293    0.94323    1.000
    O6       O        0.07727    0.27719    0.56687    1.000
    O7       O        0.26032    0.31548    0.42248    1.000
    O8       O        0.88380    0.73690    0.04850    1.000
    O9       O        0.73968    0.68452    0.57752    1.000
    O10      O        0.78902    0.55293    0.44323    1.000
    O11      O        0.11620    0.26310    0.95150    1.000
    O12      O        0.25200    0.15960    0.07100    1.000
    O13      O        0.11990    0.75133    0.57247    1.000
    O14      O        0.92133    0.22281    0.93313    1.000
    O15      O        0.99828    0.18452    0.07752    1.000
    O16      O        0.92273    0.72281    0.43313    1.000
    O17      O        0.07093    0.65163    0.52951    1.000
    O18      O        0.55630    0.25133    0.07247    1.000
    O19      O        0.78518    0.94707    0.05677    1.000
    O20      O        0.33080    0.23690    0.54850    1.000
    O21      O        0.07867    0.77719    0.06687    1.000
    O22      O        0.74800    0.84040    0.92900    1.000
    O23      O        0.48260    0.34040    0.42900    1.000
    O24      O        0.88010    0.24867    0.42753    1.000
    O25      O        0.95609    0.48228    0.55874    1.000
    O26      O        0.25207    0.84837    0.97049    1.000
    O27      O        0.99711    0.01772    0.94126    1.000
    O28      O        0.66920    0.76310    0.45150    1.000
    O29      O        0.00172    0.81548    0.92248    1.000
    O30      O        0.44370    0.74867    0.92753    1.000
    O31      O        0.21098    0.44707    0.55677    1.000
    O32      O        0.00289    0.98228    0.05874    1.000
