# CIF file generated by openbabel 3.1.0, see https://openbabel.org
data_I
_chemical_name_common 'UBIPAY_clean'
_cell_length_a 7.8494
_cell_length_b 9.9876
_cell_length_c 12.6067
_cell_angle_alpha 104.131
_cell_angle_beta 91.094
_cell_angle_gamma 111.882
_space_group_name_H-M_alt 'P 1'
_space_group_name_Hall 'P 1'
loop_
    _symmetry_equiv_pos_as_xyz
    x,y,z
loop_
    _atom_site_label
    _atom_site_type_symbol
    _atom_site_fract_x
    _atom_site_fract_y
    _atom_site_fract_z
    _atom_site_occupancy
    Mn1      Mn       0.98193    0.27892    0.46437    1.000
    Mn2      Mn       0.01807    0.72108    0.53563    1.000
    H1       H        0.46530    0.80640    0.45820    1.000
    H2       H        0.62820    0.87060    0.16790    1.000
    H3       H        0.25090    0.47660    0.18220    1.000
    H4       H        0.47990    0.67090    0.99360    1.000
    H5       H        0.26820    0.38660    0.01890    1.000
    H6       H        0.90670    0.16940    0.68240    1.000
    H7       H        0.02970    0.22640    0.86360    1.000
    H8       H        0.41420    0.59830    0.82210    1.000
    H9       H        0.27980    0.52940    0.64430    1.000
    H10      H        0.53470    0.19360    0.54180    1.000
    H11      H        0.37180    0.12940    0.83210    1.000
    H12      H        0.74910    0.52340    0.81780    1.000
    H13      H        0.52010    0.32910    0.00640    1.000
    H14      H        0.73180    0.61340    0.98110    1.000
    H15      H        0.09330    0.83060    0.31760    1.000
    H16      H        0.97030    0.77360    0.13640    1.000
    H17      H        0.58580    0.40170    0.17790    1.000
    H18      H        0.72020    0.47060    0.35570    1.000
    C1       C        0.21140    0.53840    0.39540    1.000
    C2       C        0.33280    0.63160    0.32990    1.000
    C3       C        0.45580    0.77180    0.38190    1.000
    C4       C        0.56950    0.86600    0.32200    1.000
    C5       C        0.71200    0.01710    0.37970    1.000
    C6       C        0.55780    0.80920    0.20900    1.000
    C7       C        0.44280    0.66240    0.15620    1.000
    C8       C        0.32990    0.57480    0.21710    1.000
    C9       C        0.47460    0.60070    0.03710    1.000
    C10      C        0.35050    0.43910    0.97180    1.000
    C11      C        0.01170    0.25650    0.71030    1.000
    C12      C        0.08600    0.28930    0.81990    1.000
    C13      C        0.24390    0.41630    0.86200    1.000
    C14      C        0.31250    0.50830    0.79570    1.000
    C15      C        0.22920    0.46610    0.68870    1.000
    C16      C        0.78860    0.46160    0.60460    1.000
    C17      C        0.66720    0.36840    0.67010    1.000
    C18      C        0.54420    0.22820    0.61810    1.000
    C19      C        0.43050    0.13400    0.67800    1.000
    C20      C        0.28800    0.98290    0.62030    1.000
    C21      C        0.44220    0.19080    0.79100    1.000
    C22      C        0.55720    0.33760    0.84380    1.000
    C23      C        0.67010    0.42520    0.78290    1.000
    C24      C        0.52540    0.39930    0.96290    1.000
    C25      C        0.64950    0.56090    0.02820    1.000
    C26      C        0.98830    0.74350    0.28970    1.000
    C27      C        0.91400    0.71070    0.18010    1.000
    C28      C        0.75610    0.58370    0.13800    1.000
    C29      C        0.68750    0.49170    0.20430    1.000
    C30      C        0.77080    0.53390    0.31130    1.000
    N1       N        0.08170    0.34130    0.64500    1.000
    N2       N        0.91830    0.65870    0.35500    1.000
    O1       O        0.12870    0.40030    0.35220    1.000
    O2       O        0.19670    0.60010    0.49290    1.000
    O3       O        0.77810    0.04310    0.47530    1.000
    O4       O        0.76300    0.11440    0.32670    1.000
    O5       O        0.87130    0.59970    0.64780    1.000
    O6       O        0.80330    0.39990    0.50710    1.000
    O7       O        0.22190    0.95690    0.52470    1.000
    O8       O        0.23700    0.88560    0.67330    1.000
