# CIF file generated by openbabel 3.1.0, see https://openbabel.org
data_I
_chemical_name_common 'CUVGOQ_clean'
_cell_length_a 5.6153
_cell_length_b 9.3336
_cell_length_c 13.3398
_cell_angle_alpha 106.03
_cell_angle_beta 93.611
_cell_angle_gamma 102.05
_space_group_name_H-M_alt 'P 1'
_space_group_name_Hall 'P 1'
loop_
    _symmetry_equiv_pos_as_xyz
    x,y,z
loop_
    _atom_site_label
    _atom_site_type_symbol
    _atom_site_fract_x
    _atom_site_fract_y
    _atom_site_fract_z
    _atom_site_occupancy
    Mn1      Mn       0.00000    0.00000    0.00000    1.000
    H1       H        0.69900    0.43200    0.51400    1.000
    H2       H        0.59400    0.39370    0.92960    1.000
    H3       H        0.23970    0.35090    0.04970    1.000
    H4       H        0.57560    0.91890    0.79990    1.000
    H5       H        0.42590    0.74690    0.63830    1.000
    H6       H        0.00200    0.56240    0.66090    1.000
    H7       H        0.14080    0.74460    0.81870    1.000
    H8       H        0.30100    0.56800    0.48600    1.000
    H9       H        0.40600    0.60630    0.07040    1.000
    H10      H        0.76030    0.64910    0.95030    1.000
    H11      H        0.42440    0.08110    0.20010    1.000
    H12      H        0.57410    0.25310    0.36170    1.000
    H13      H        0.99800    0.43760    0.33910    1.000
    H14      H        0.85920    0.25540    0.18130    1.000
    C1       C        0.56060    0.14230    0.96230    1.000
    C2       C        0.89710    0.34330    0.98760    1.000
    C3       C        0.75760    0.43600    0.95810    1.000
    C4       C        0.14240    0.41020    0.02960    1.000
    C5       C        0.66240    0.84580    0.77160    1.000
    C6       C        0.56920    0.74160    0.67450    1.000
    C7       C        0.69160    0.62830    0.63120    1.000
    C8       C        0.60150    0.50730    0.53110    1.000
    C9       C        0.91040    0.63330    0.68760    1.000
    C10      C        0.99220    0.74320    0.78300    1.000
    C11      C        0.43940    0.85770    0.03770    1.000
    C12      C        0.10290    0.65670    0.01240    1.000
    C13      C        0.24240    0.56400    0.04190    1.000
    C14      C        0.85760    0.58980    0.97040    1.000
    C15      C        0.33760    0.15420    0.22840    1.000
    C16      C        0.43080    0.25840    0.32550    1.000
    C17      C        0.30840    0.37170    0.36880    1.000
    C18      C        0.39850    0.49270    0.46890    1.000
    C19      C        0.08960    0.36670    0.31240    1.000
    C20      C        0.00780    0.25680    0.21700    1.000
    N1       N        0.34490    0.09630    0.94900    1.000
    N2       N        0.79890    0.18510    0.97620    1.000
    N3       N        0.87030    0.84800    0.82750    1.000
    N4       N        0.65510    0.90370    0.05100    1.000
    N5       N        0.20110    0.81490    0.02380    1.000
    N6       N        0.12970    0.15200    0.17250    1.000
