# CIF file generated by openbabel 3.1.0, see https://openbabel.org
data_I
_chemical_name_common 'image0'
_cell_length_a 13.056
_cell_length_b 13.056
_cell_length_c 9.485
_cell_angle_alpha 90
_cell_angle_beta 90
_cell_angle_gamma 120
_space_group_name_H-M_alt 'P 1'
_space_group_name_Hall 'P 1'
loop_
    _symmetry_equiv_pos_as_xyz
    x,y,z
loop_
    _atom_site_label
    _atom_site_type_symbol
    _atom_site_fract_x
    _atom_site_fract_y
    _atom_site_fract_z
    _atom_site_occupancy
    H1       H        0.87320    0.42740    0.17640    1.000
    P1       P        0.55655    0.88758    0.08991    1.000
    O1       O        0.61770    0.99210    0.99220    1.000
    O2       O        0.58530    0.79330    0.04030    1.000
    O3       O        0.42080    0.83120    0.08310    1.000
    O4       O        0.59910    0.92680    0.23920    1.000
    Be1      Be       0.66340    0.10830    0.90070    1.000
    H2       H        0.57260    0.44580    0.17640    1.000
    P2       P        0.11242    0.66897    0.08991    1.000
    O5       O        0.00790    0.62560    0.99220    1.000
    O6       O        0.20670    0.79200    0.04030    1.000
    O7       O        0.16880    0.58960    0.08310    1.000
    O8       O        0.07320    0.67230    0.23920    1.000
    Be2      Be       0.89170    0.55510    0.90070    1.000
    H3       H        0.55420    0.12680    0.17640    1.000
    P3       P        0.33103    0.44345    0.08991    1.000
    O9       O        0.37440    0.38230    0.99220    1.000
    O10      O        0.20800    0.41470    0.04030    1.000
    O11      O        0.41040    0.57920    0.08310    1.000
    O12      O        0.32770    0.40090    0.23920    1.000
    Be3      Be       0.44490    0.33660    0.90070    1.000
    H4       H        0.57260    0.12680    0.32360    1.000
    P4       P        0.11242    0.44345    0.41009    1.000
    O13      O        0.00790    0.38230    0.50780    1.000
    O14      O        0.20670    0.41470    0.45970    1.000
    O15      O        0.16880    0.57920    0.41690    1.000
    O16      O        0.07320    0.40090    0.26080    1.000
    Be4      Be       0.89170    0.33660    0.59930    1.000
    H5       H        0.55420    0.42740    0.32360    1.000
    P5       P        0.33103    0.88758    0.41009    1.000
    O17      O        0.37440    0.99210    0.50780    1.000
    O18      O        0.20800    0.79330    0.45970    1.000
    O19      O        0.41040    0.83120    0.41690    1.000
    O20      O        0.32770    0.92680    0.26080    1.000
    Be5      Be       0.44490    0.10830    0.59930    1.000
    H6       H        0.87320    0.44580    0.32360    1.000
    P6       P        0.55655    0.66897    0.41009    1.000
    O21      O        0.61770    0.62560    0.50780    1.000
    O22      O        0.58530    0.79200    0.45970    1.000
    O23      O        0.42080    0.58960    0.41690    1.000
    O24      O        0.59910    0.67230    0.26080    1.000
    Be6      Be       0.66340    0.55510    0.59930    1.000
    H7       H        0.12680    0.57260    0.82360    1.000
    P7       P        0.44345    0.11242    0.91009    1.000
    O25      O        0.38230    0.00790    0.00780    1.000
    O26      O        0.41470    0.20670    0.95970    1.000
    O27      O        0.57920    0.16880    0.91690    1.000
    O28      O        0.40090    0.07320    0.76080    1.000
    Be7      Be       0.33660    0.89170    0.09930    1.000
    H8       H        0.42740    0.55420    0.82360    1.000
    P8       P        0.88758    0.33103    0.91009    1.000
    O29      O        0.99210    0.37440    0.00780    1.000
    O30      O        0.79330    0.20800    0.95970    1.000
    O31      O        0.83120    0.41040    0.91690    1.000
    O32      O        0.92680    0.32770    0.76080    1.000
    Be8      Be       0.10830    0.44490    0.09930    1.000
    H9       H        0.44580    0.87320    0.82360    1.000
    P9       P        0.66897    0.55655    0.91009    1.000
    O33      O        0.62560    0.61770    0.00780    1.000
    O34      O        0.79200    0.58530    0.95970    1.000
    O35      O        0.58960    0.42080    0.91690    1.000
    O36      O        0.67230    0.59910    0.76080    1.000
    Be9      Be       0.55510    0.66340    0.09930    1.000
    H10      H        0.42740    0.87320    0.67640    1.000
    P10      P        0.88758    0.55655    0.58991    1.000
    O37      O        0.99210    0.61770    0.49220    1.000
    O38      O        0.79330    0.58530    0.54030    1.000
    O39      O        0.83120    0.42080    0.58310    1.000
    O40      O        0.92680    0.59910    0.73920    1.000
    Be10     Be       0.10830    0.66340    0.40070    1.000
    H11      H        0.44580    0.57260    0.67640    1.000
    P11      P        0.66897    0.11242    0.58991    1.000
    O41      O        0.62560    0.00790    0.49220    1.000
    O42      O        0.79200    0.20670    0.54030    1.000
    O43      O        0.58960    0.16880    0.58310    1.000
    O44      O        0.67230    0.07320    0.73920    1.000
    Be11     Be       0.55510    0.89170    0.40070    1.000
    H12      H        0.12680    0.55420    0.67640    1.000
    P12      P        0.44345    0.33103    0.58991    1.000
    O45      O        0.38230    0.37440    0.49220    1.000
    O46      O        0.41470    0.20800    0.54030    1.000
    O47      O        0.57920    0.41040    0.58310    1.000
    O48      O        0.40090    0.32770    0.73920    1.000
    Be12     Be       0.33660    0.44490    0.40070    1.000
    Na1      Na       0.33333    0.66667    0.25000    1.000
    Na2      Na       0.66667    0.33333    0.75000    1.000
    Na3      Na       0.66667    0.33333    0.08110    1.000
    Na4      Na       0.66667    0.33333    0.41890    1.000
    Na5      Na       0.33333    0.66667    0.91890    1.000
    Na6      Na       0.33333    0.66667    0.58110    1.000
    O49      O        0.83500    0.41750    0.25000    1.000
    O50      O        0.58250    0.41750    0.25000    1.000
    O51      O        0.58250    0.16500    0.25000    1.000
    O52      O        0.16500    0.58250    0.75000    1.000
    O53      O        0.41750    0.58250    0.75000    1.000
    O54      O        0.41750    0.83500    0.75000    1.000
