# CIF file generated by openbabel 3.1.0, see https://openbabel.org
data_I
_chemical_name_common 'image0'
_cell_length_a 10.781
_cell_length_b 13.903
_cell_length_c 18.74
_cell_angle_alpha 90
_cell_angle_beta 98.17
_cell_angle_gamma 90
_space_group_name_H-M_alt 'P 1'
_space_group_name_Hall 'P 1'
loop_
    _symmetry_equiv_pos_as_xyz
    x,y,z
loop_
    _atom_site_label
    _atom_site_type_symbol
    _atom_site_fract_x
    _atom_site_fract_y
    _atom_site_fract_z
    _atom_site_occupancy
    Ni1      Ni       0.60570    0.73079    0.47625    1.000
    C1       C        0.99905    0.75702    0.96611    1.000
    C2       C        0.10848    0.81053    0.98160    1.000
    H1       H        0.10410    0.87770    0.99040    1.000
    C3       C        0.22437    0.76584    0.98423    1.000
    C4       C        0.23083    0.66763    0.97138    1.000
    H2       H        0.31000    0.63710    0.97320    1.000
    C5       C        0.12141    0.61411    0.95588    1.000
    C6       C        0.00552    0.65881    0.95325    1.000
    H3       H        0.93070    0.62220    0.94270    1.000
    C7       C        0.87461    0.80429    0.97253    1.000
    C8       C        0.34700    0.81841    0.99522    1.000
    C9       C        0.12800    0.50852    0.94220    1.000
    O1       O        0.77689    0.75848    0.94362    1.000
    O2       O        0.87222    0.88267    0.00441    1.000
    O3       O        0.34780    0.90793    0.98495    1.000
    O4       O        0.44118    0.76547    0.01307    1.000
    O5       O        0.24047    0.47191    0.96774    1.000
    O6       O        0.04346    0.46096    0.91150    1.000
    C10      C        0.52629    0.98160    0.33146    1.000
    C11      C        0.52825    0.99224    0.25787    1.000
    H4       H        0.56720    0.94480    0.23210    1.000
    C12      C        0.47347    0.07183    0.22234    1.000
    C13      C        0.42044    0.14309    0.26037    1.000
    H5       H        0.38550    0.19890    0.23600    1.000
    C14      C        0.41856    0.13272    0.33398    1.000
    C15      C        0.46971    0.05110    0.36957    1.000
    H6       H        0.46610    0.04280    0.41960    1.000
    C16      C        0.59172    0.89932    0.37234    1.000
    C17      C        0.46920    0.08395    0.14100    1.000
    C18      C        0.36551    0.21399    0.37393    1.000
    O7       O        0.55485    0.86516    0.42596    1.000
    O8       O        0.69276    0.86715    0.34666    1.000
    O9       O        0.47995    0.00897    0.10542    1.000
    O10      O        0.45855    0.16943    0.11916    1.000
    O11      O        0.36570    0.29690    0.34911    1.000
    O12      O        0.32520    0.19236    0.43304    1.000
    O13      O        0.64038    0.89704    0.03208    1.000
    Ni2      Ni       0.39430    0.23079    0.02375    1.000
    C19      C        0.00095    0.25702    0.53389    1.000
    C20      C        0.89152    0.31053    0.51840    1.000
    H7       H        0.89590    0.37770    0.50960    1.000
    C21      C        0.77563    0.26584    0.51577    1.000
    C22      C        0.76917    0.16763    0.52862    1.000
    H8       H        0.69000    0.13710    0.52680    1.000
    C23      C        0.87859    0.11411    0.54412    1.000
    C24      C        0.99448    0.15881    0.54675    1.000
    H9       H        0.06930    0.12220    0.55730    1.000
    C25      C        0.12539    0.30429    0.52747    1.000
    C26      C        0.65300    0.31841    0.50478    1.000
    C27      C        0.87200    0.00852    0.55780    1.000
    O14      O        0.22311    0.25848    0.55638    1.000
    O15      O        0.12778    0.38267    0.49559    1.000
    O16      O        0.65220    0.40793    0.51505    1.000
    O17      O        0.55882    0.26547    0.48693    1.000
    O18      O        0.75953    0.97191    0.53226    1.000
    O19      O        0.95654    0.96096    0.58850    1.000
    C28      C        0.47371    0.48160    0.16854    1.000
    C29      C        0.47175    0.49224    0.24213    1.000
    H10      H        0.43280    0.44480    0.26790    1.000
    C30      C        0.52653    0.57183    0.27766    1.000
    C31      C        0.57956    0.64309    0.23963    1.000
    H11      H        0.61450    0.69890    0.26400    1.000
    C32      C        0.58144    0.63272    0.16602    1.000
    C33      C        0.53029    0.55110    0.13043    1.000
    H12      H        0.53390    0.54280    0.08040    1.000
    C34      C        0.40828    0.39932    0.12766    1.000
    C35      C        0.53080    0.58395    0.35900    1.000
    C36      C        0.63449    0.71399    0.12607    1.000
    O20      O        0.44515    0.36516    0.07404    1.000
    O21      O        0.30724    0.36715    0.15334    1.000
    O22      O        0.52005    0.50897    0.39458    1.000
    O23      O        0.54145    0.66943    0.38084    1.000
    O24      O        0.63430    0.79690    0.15089    1.000
    O25      O        0.67480    0.69236    0.06696    1.000
    O26      O        0.35962    0.39704    0.46792    1.000
    Ni3      Ni       0.39430    0.26921    0.52375    1.000
    C37      C        0.00095    0.24298    0.03389    1.000
    C38      C        0.89152    0.18947    0.01840    1.000
    H13      H        0.89590    0.12230    0.00960    1.000
    C39      C        0.77563    0.23416    0.01577    1.000
    C40      C        0.76917    0.33237    0.02862    1.000
    H14      H        0.69000    0.36290    0.02680    1.000
    C41      C        0.87859    0.38589    0.04412    1.000
    C42      C        0.99448    0.34119    0.04675    1.000
    H15      H        0.06930    0.37780    0.05730    1.000
    C43      C        0.12539    0.19571    0.02747    1.000
    C44      C        0.65300    0.18159    0.00478    1.000
    C45      C        0.87200    0.49148    0.05780    1.000
    O27      O        0.22311    0.24152    0.05638    1.000
    O28      O        0.12778    0.11733    0.99559    1.000
    O29      O        0.65220    0.09207    0.01505    1.000
    O30      O        0.55882    0.23453    0.98693    1.000
    O31      O        0.75953    0.52809    0.03226    1.000
    O32      O        0.95654    0.53904    0.08850    1.000
    C46      C        0.47371    0.01840    0.66854    1.000
    C47      C        0.47175    0.00776    0.74213    1.000
    H16      H        0.43280    0.05520    0.76790    1.000
    C48      C        0.52653    0.92817    0.77766    1.000
    C49      C        0.57956    0.85691    0.73963    1.000
    H17      H        0.61450    0.80110    0.76400    1.000
    C50      C        0.58144    0.86728    0.66602    1.000
    C51      C        0.53029    0.94890    0.63043    1.000
    H18      H        0.53390    0.95720    0.58040    1.000
    C52      C        0.40828    0.10068    0.62766    1.000
    C53      C        0.53080    0.91605    0.85900    1.000
    C54      C        0.63449    0.78601    0.62607    1.000
    O33      O        0.44515    0.13484    0.57404    1.000
    O34      O        0.30724    0.13285    0.65334    1.000
    O35      O        0.52005    0.99103    0.89458    1.000
    O36      O        0.54145    0.83057    0.88084    1.000
    O37      O        0.63430    0.70310    0.65089    1.000
    O38      O        0.67480    0.80764    0.56696    1.000
    O39      O        0.35962    0.10296    0.96792    1.000
    Ni4      Ni       0.60570    0.76921    0.97625    1.000
    C55      C        0.99905    0.74298    0.46611    1.000
    C56      C        0.10848    0.68947    0.48160    1.000
    H19      H        0.10410    0.62230    0.49040    1.000
    C57      C        0.22437    0.73416    0.48423    1.000
    C58      C        0.23083    0.83237    0.47138    1.000
    H20      H        0.31000    0.86290    0.47320    1.000
    C59      C        0.12141    0.88589    0.45588    1.000
    C60      C        0.00552    0.84119    0.45325    1.000
    H21      H        0.93070    0.87780    0.44270    1.000
    C61      C        0.87461    0.69571    0.47253    1.000
    C62      C        0.34700    0.68159    0.49522    1.000
    C63      C        0.12800    0.99148    0.44220    1.000
    O40      O        0.77689    0.74152    0.44362    1.000
    O41      O        0.87222    0.61733    0.50441    1.000
    O42      O        0.34780    0.59207    0.48495    1.000
    O43      O        0.44118    0.73453    0.51307    1.000
    O44      O        0.24047    0.02809    0.46774    1.000
    O45      O        0.04346    0.03904    0.41150    1.000
    C64      C        0.52629    0.51840    0.83146    1.000
    C65      C        0.52825    0.50776    0.75787    1.000
    H22      H        0.56720    0.55520    0.73210    1.000
    C66      C        0.47347    0.42817    0.72234    1.000
    C67      C        0.42044    0.35691    0.76037    1.000
    H23      H        0.38550    0.30110    0.73600    1.000
    C68      C        0.41856    0.36728    0.83398    1.000
    C69      C        0.46971    0.44890    0.86957    1.000
    H24      H        0.46610    0.45720    0.91960    1.000
    C70      C        0.59172    0.60068    0.87234    1.000
    C71      C        0.46920    0.41605    0.64100    1.000
    C72      C        0.36551    0.28601    0.87393    1.000
    O46      O        0.55485    0.63484    0.92596    1.000
    O47      O        0.69276    0.63285    0.84666    1.000
    O48      O        0.47995    0.49103    0.60542    1.000
    O49      O        0.45855    0.33057    0.61916    1.000
    O50      O        0.36570    0.20310    0.84911    1.000
    O51      O        0.32520    0.30764    0.93304    1.000
    O52      O        0.64038    0.60296    0.53208    1.000
    Ni5      Ni       0.50000    0.00000    0.00000    1.000
    Ni6      Ni       0.50000    0.50000    0.50000    1.000
