# CIF file generated by openbabel 3.1.0, see https://openbabel.org
data_I
_chemical_name_common 'image0'
_cell_length_a 10.587
_cell_length_b 26.0488
_cell_length_c 11.7631
_cell_angle_alpha 90
_cell_angle_beta 98.326
_cell_angle_gamma 90
_space_group_name_H-M_alt 'P 1'
_space_group_name_Hall 'P 1'
loop_
    _symmetry_equiv_pos_as_xyz
    x,y,z
loop_
    _atom_site_label
    _atom_site_type_symbol
    _atom_site_fract_x
    _atom_site_fract_y
    _atom_site_fract_z
    _atom_site_occupancy
    Gd1      Gd       0.85279    0.91132    0.86264    1.000
    Gd2      Gd       0.36022    0.78671    0.94540    1.000
    Gd3      Gd       0.77483    0.03433    0.46097    1.000
    P1       P        0.91061    0.91279    0.56003    1.000
    N1       N        0.86820    0.83693    0.38400    1.000
    H1       H        0.81920    0.86120    0.34320    1.000
    O1       O        0.86030    0.91444    0.67310    1.000
    O2       O        0.84260    0.94945    0.47110    1.000
    O3       O        0.05360    0.91823    0.57100    1.000
    O4       O        0.53280    0.84447    0.01940    1.000
    O5       O        0.71380    0.88375    0.99550    1.000
    O6       O        0.52490    0.79983    0.81450    1.000
    O7       O        0.69300    0.84712    0.78270    1.000
    O8       O        0.13300    0.78634    0.94200    1.000
    O9       O        0.95320    0.83204    0.90810    1.000
    O10      O        0.27060    0.87256    0.93220    1.000
    O11      O        0.08970    0.91541    0.87270    1.000
    O12      O        0.33580    0.71500    0.82000    1.000
    O13      O        0.35270    0.69041    0.64190    1.000
    O14      O        0.26390    0.80843    0.74160    1.000
    O15      O        0.29300    0.78501    0.56390    1.000
    O16      O        0.93830    0.94368    0.05040    1.000
    O17      O        0.07830    0.99990    0.14060    1.000
    O18      O        0.63570    0.00979    0.60080    1.000
    O19      O        0.43440    0.99506    0.62650    1.000
    C1       C        0.86920    0.84731    0.50990    1.000
    H2       H        0.92910    0.82380    0.55290    1.000
    H3       H        0.78520    0.83930    0.52880    1.000
    C2       C        0.81070    0.78512    0.35270    1.000
    H4       H        0.72490    0.78370    0.37250    1.000
    H5       H        0.86120    0.75870    0.39590    1.000
    C3       C        0.80630    0.77550    0.22460    1.000
    H6       H        0.77170    0.74150    0.20620    1.000
    H7       H        0.74950    0.80030    0.18210    1.000
    C4       C        0.93570    0.77940    0.18710    1.000
    H8       H        0.92760    0.77580    0.10420    1.000
    H9       H        0.99000    0.75200    0.22180    1.000
    C5       C        0.99550    0.83120    0.22310    1.000
    H10      H        0.08150    0.83250    0.20390    1.000
    H11      H        0.94620    0.85840    0.18150    1.000
    C6       C        0.99960    0.83940    0.35140    1.000
    H12      H        0.05290    0.81330    0.39310    1.000
    H13      H        0.03700    0.87270    0.37260    1.000
    C7       C        0.61940    0.85521    0.96300    1.000
    C8       C        0.61220    0.83188    0.84220    1.000
    C9       C        0.07210    0.82710    0.92030    1.000
    C10      C        0.15120    0.87613    0.90710    1.000
    C11      C        0.32980    0.72253    0.71470    1.000
    C12      C        0.29130    0.77714    0.66800    1.000
    C13      C        0.00460    0.98336    0.05570    1.000
    C14      C        0.51970    0.00135    0.56560    1.000
    Gd4      Gd       0.14721    0.41132    0.63736    1.000
    Gd5      Gd       0.63978    0.28671    0.55460    1.000
    Gd6      Gd       0.22517    0.53433    0.03903    1.000
    P2       P        0.08939    0.41279    0.93997    1.000
    N2       N        0.13180    0.33693    0.11600    1.000
    H14      H        0.18080    0.36120    0.15680    1.000
    O20      O        0.13970    0.41444    0.82690    1.000
    O21      O        0.15740    0.44945    0.02890    1.000
    O22      O        0.94640    0.41823    0.92900    1.000
    O23      O        0.46720    0.34447    0.48060    1.000
    O24      O        0.28620    0.38375    0.50450    1.000
    O25      O        0.47510    0.29983    0.68550    1.000
    O26      O        0.30700    0.34712    0.71730    1.000
    O27      O        0.86700    0.28634    0.55800    1.000
    O28      O        0.04680    0.33204    0.59190    1.000
    O29      O        0.72940    0.37256    0.56780    1.000
    O30      O        0.91030    0.41541    0.62730    1.000
    O31      O        0.66420    0.21500    0.68000    1.000
    O32      O        0.64730    0.19041    0.85810    1.000
    O33      O        0.73610    0.30843    0.75840    1.000
    O34      O        0.70700    0.28501    0.93610    1.000
    O35      O        0.06170    0.44368    0.44960    1.000
    O36      O        0.92170    0.49990    0.35940    1.000
    O37      O        0.36430    0.50979    0.89920    1.000
    O38      O        0.56560    0.49506    0.87350    1.000
    C15      C        0.13080    0.34731    0.99010    1.000
    H15      H        0.07090    0.32380    0.94710    1.000
    H16      H        0.21480    0.33930    0.97120    1.000
    C16      C        0.18930    0.28512    0.14730    1.000
    H17      H        0.27510    0.28370    0.12750    1.000
    H18      H        0.13880    0.25870    0.10410    1.000
    C17      C        0.19370    0.27550    0.27540    1.000
    H19      H        0.22830    0.24150    0.29380    1.000
    H20      H        0.25050    0.30030    0.31790    1.000
    C18      C        0.06430    0.27940    0.31290    1.000
    H21      H        0.07240    0.27580    0.39580    1.000
    H22      H        0.01000    0.25200    0.27820    1.000
    C19      C        0.00450    0.33120    0.27690    1.000
    H23      H        0.91850    0.33250    0.29610    1.000
    H24      H        0.05380    0.35840    0.31850    1.000
    C20      C        0.00040    0.33940    0.14860    1.000
    H25      H        0.94710    0.31330    0.10690    1.000
    H26      H        0.96300    0.37270    0.12740    1.000
    C21      C        0.38060    0.35521    0.53700    1.000
    C22      C        0.38780    0.33188    0.65780    1.000
    C23      C        0.92790    0.32710    0.57970    1.000
    C24      C        0.84880    0.37613    0.59290    1.000
    C25      C        0.67020    0.22253    0.78530    1.000
    C26      C        0.70870    0.27714    0.83200    1.000
    C27      C        0.99540    0.48336    0.44430    1.000
    C28      C        0.48030    0.50135    0.93440    1.000
    Gd7      Gd       0.14721    0.08868    0.13736    1.000
    Gd8      Gd       0.63978    0.21329    0.05460    1.000
    Gd9      Gd       0.22517    0.96567    0.53903    1.000
    P3       P        0.08939    0.08721    0.43997    1.000
    N3       N        0.13180    0.16307    0.61600    1.000
    H27      H        0.18080    0.13880    0.65680    1.000
    O39      O        0.13970    0.08556    0.32690    1.000
    O40      O        0.15740    0.05055    0.52890    1.000
    O41      O        0.94640    0.08177    0.42900    1.000
    O42      O        0.46720    0.15553    0.98060    1.000
    O43      O        0.28620    0.11625    0.00450    1.000
    O44      O        0.47510    0.20017    0.18550    1.000
    O45      O        0.30700    0.15288    0.21730    1.000
    O46      O        0.86700    0.21366    0.05800    1.000
    O47      O        0.04680    0.16796    0.09190    1.000
    O48      O        0.72940    0.12744    0.06780    1.000
    O49      O        0.91030    0.08459    0.12730    1.000
    O50      O        0.66420    0.28500    0.18000    1.000
    O51      O        0.64730    0.30959    0.35810    1.000
    O52      O        0.73610    0.19157    0.25840    1.000
    O53      O        0.70700    0.21499    0.43610    1.000
    O54      O        0.06170    0.05632    0.94960    1.000
    O55      O        0.92170    0.00010    0.85940    1.000
    O56      O        0.36430    0.99021    0.39920    1.000
    O57      O        0.56560    0.00494    0.37350    1.000
    C29      C        0.13080    0.15269    0.49010    1.000
    H28      H        0.07090    0.17620    0.44710    1.000
    H29      H        0.21480    0.16070    0.47120    1.000
    C30      C        0.18930    0.21488    0.64730    1.000
    H30      H        0.27510    0.21630    0.62750    1.000
    H31      H        0.13880    0.24130    0.60410    1.000
    C31      C        0.19370    0.22450    0.77540    1.000
    H32      H        0.22830    0.25850    0.79380    1.000
    H33      H        0.25050    0.19970    0.81790    1.000
    C32      C        0.06430    0.22060    0.81290    1.000
    H34      H        0.07240    0.22420    0.89580    1.000
    H35      H        0.01000    0.24800    0.77820    1.000
    C33      C        0.00450    0.16880    0.77690    1.000
    H36      H        0.91850    0.16750    0.79610    1.000
    H37      H        0.05380    0.14160    0.81850    1.000
    C34      C        0.00040    0.16060    0.64860    1.000
    H38      H        0.94710    0.18670    0.60690    1.000
    H39      H        0.96300    0.12730    0.62740    1.000
    C35      C        0.38060    0.14479    0.03700    1.000
    C36      C        0.38780    0.16812    0.15780    1.000
    C37      C        0.92790    0.17290    0.07970    1.000
    C38      C        0.84880    0.12387    0.09290    1.000
    C39      C        0.67020    0.27747    0.28530    1.000
    C40      C        0.70870    0.22286    0.33200    1.000
    C41      C        0.99540    0.01664    0.94430    1.000
    C42      C        0.48030    0.99865    0.43440    1.000
    Gd10     Gd       0.85279    0.58868    0.36264    1.000
    Gd11     Gd       0.36022    0.71329    0.44540    1.000
    Gd12     Gd       0.77483    0.46567    0.96097    1.000
    P4       P        0.91061    0.58721    0.06003    1.000
    N4       N        0.86820    0.66307    0.88400    1.000
    H40      H        0.81920    0.63880    0.84320    1.000
    O58      O        0.86030    0.58556    0.17310    1.000
    O59      O        0.84260    0.55055    0.97110    1.000
    O60      O        0.05360    0.58177    0.07100    1.000
    O61      O        0.53280    0.65553    0.51940    1.000
    O62      O        0.71380    0.61625    0.49550    1.000
    O63      O        0.52490    0.70017    0.31450    1.000
    O64      O        0.69300    0.65288    0.28270    1.000
    O65      O        0.13300    0.71366    0.44200    1.000
    O66      O        0.95320    0.66796    0.40810    1.000
    O67      O        0.27060    0.62744    0.43220    1.000
    O68      O        0.08970    0.58459    0.37270    1.000
    O69      O        0.33580    0.78500    0.32000    1.000
    O70      O        0.35270    0.80959    0.14190    1.000
    O71      O        0.26390    0.69157    0.24160    1.000
    O72      O        0.29300    0.71499    0.06390    1.000
    O73      O        0.93830    0.55632    0.55040    1.000
    O74      O        0.07830    0.50010    0.64060    1.000
    O75      O        0.63570    0.49021    0.10080    1.000
    O76      O        0.43440    0.50494    0.12650    1.000
    C43      C        0.86920    0.65269    0.00990    1.000
    H41      H        0.92910    0.67620    0.05290    1.000
    H42      H        0.78520    0.66070    0.02880    1.000
    C44      C        0.81070    0.71488    0.85270    1.000
    H43      H        0.72490    0.71630    0.87250    1.000
    H44      H        0.86120    0.74130    0.89590    1.000
    C45      C        0.80630    0.72450    0.72460    1.000
    H45      H        0.77170    0.75850    0.70620    1.000
    H46      H        0.74950    0.69970    0.68210    1.000
    C46      C        0.93570    0.72060    0.68710    1.000
    H47      H        0.92760    0.72420    0.60420    1.000
    H48      H        0.99000    0.74800    0.72180    1.000
    C47      C        0.99550    0.66880    0.72310    1.000
    H49      H        0.08150    0.66750    0.70390    1.000
    H50      H        0.94620    0.64160    0.68150    1.000
    C48      C        0.99960    0.66060    0.85140    1.000
    H51      H        0.05290    0.68670    0.89310    1.000
    H52      H        0.03700    0.62730    0.87260    1.000
    C49      C        0.61940    0.64479    0.46300    1.000
    C50      C        0.61220    0.66812    0.34220    1.000
    C51      C        0.07210    0.67290    0.42030    1.000
    C52      C        0.15120    0.62387    0.40710    1.000
    C53      C        0.32980    0.77747    0.21470    1.000
    C54      C        0.29130    0.72286    0.16800    1.000
    C55      C        0.00460    0.51664    0.55570    1.000
    C56      C        0.51970    0.49865    0.06560    1.000
