# CIF file generated by openbabel 3.1.0, see https://openbabel.org
data_I
_chemical_name_common 'image0'
_cell_length_a 18.9677
_cell_length_b 19.9186
_cell_length_c 31.739
_cell_angle_alpha 90
_cell_angle_beta 95.287
_cell_angle_gamma 90
_space_group_name_H-M_alt 'P 1'
_space_group_name_Hall 'P 1'
loop_
    _symmetry_equiv_pos_as_xyz
    x,y,z
loop_
    _atom_site_label
    _atom_site_type_symbol
    _atom_site_fract_x
    _atom_site_fract_y
    _atom_site_fract_z
    _atom_site_occupancy
    Zn1      Zn       0.35819    0.85897    0.40850    1.000
    Zn2      Zn       0.14390    0.08890    0.17478    1.000
    O1       O        0.42580    0.82240    0.33230    1.000
    O2       O        0.46250    0.84130    0.39570    1.000
    O3       O        0.56070    0.81480    0.31370    1.000
    O4       O        0.23840    0.27130    0.03720    1.000
    O5       O        0.16720    0.26000    0.08960    1.000
    O6       O        0.29220    0.14910    0.05081    1.000
    O7       O        0.88280    0.39920    0.96490    1.000
    O8       O        0.77800    0.44520    0.96850    1.000
    O9       O        0.81920    0.47840    0.05440    1.000
    O10      O        0.14840    0.09440    0.23540    1.000
    O11      O        0.11300    0.19960    0.24260    1.000
    O12      O        0.07600    0.18300    0.32420    1.000
    O13      O        0.30980    0.91880    0.36920    1.000
    O14      O        0.20870    0.86320    0.37880    1.000
    O15      O        0.12520    0.95780    0.33300    1.000
    O16      O        0.22800    0.47390    0.31380    1.000
    O17      O        0.28450    0.55400    0.34610    1.000
    O18      O        0.09520    0.52540    0.31860    1.000
    C1       C        0.46960    0.82630    0.36020    1.000
    C2       C        0.54400    0.79870    0.35540    1.000
    H1       H        0.57860    0.81920    0.37640    1.000
    C3       C        0.54840    0.72060    0.35840    1.000
    H2       H        0.59610    0.70640    0.35570    1.000
    H3       H        0.51730    0.70100    0.33620    1.000
    H4       H        0.53440    0.70630    0.38530    1.000
    C4       C        0.59040    0.87400    0.30670    1.000
    C5       C        0.58230    0.93210    0.33100    1.000
    H5       H        0.55680    0.93060    0.35460    1.000
    C6       C        0.61230    0.99050    0.31950    1.000
    C7       C        0.64850    0.99300    0.28300    1.000
    C8       C        0.65510    0.93630    0.25730    1.000
    C9       C        0.62310    0.88040    0.26850    1.000
    H6       H        0.62220    0.84370    0.25040    1.000
    C10      C        0.61160    0.05370    0.34670    1.000
    H7       H        0.65880    0.06340    0.35860    1.000
    H8       H        0.58160    0.04660    0.36910    1.000
    H9       H        0.59390    0.09080    0.32950    1.000
    C11      C        0.69350    0.93640    0.21820    1.000
    H10      H        0.69010    0.89270    0.20540    1.000
    H11      H        0.74240    0.94730    0.22550    1.000
    H12      H        0.67260    0.96910    0.19860    1.000
    C12      C        0.13100    0.14930    0.25990    1.000
    C13      C        0.12780    0.14040    0.30530    1.000
    H13      H        0.11900    0.09310    0.31150    1.000
    C14      C        0.20010    0.16100    0.32560    1.000
    H14      H        0.23350    0.12560    0.32220    1.000
    H15      H        0.19730    0.16930    0.35520    1.000
    H16      H        0.21520    0.20110    0.31230    1.000
    C15      C        0.00640    0.16260    0.31090    1.000
    C16      C        0.99000    0.11030    0.28480    1.000
    H17      H        0.02650    0.08500    0.27520    1.000
    C17      C        0.91950    0.09260    0.27180    1.000
    C18      C        0.86780    0.13760    0.28740    1.000
    C19      C        0.88440    0.19210    0.31350    1.000
    C20      C        0.95470    0.20250    0.32480    1.000
    H18      H        0.96800    0.23810    0.34280    1.000
    C21      C        0.90120    0.03560    0.24010    1.000
    H19      H        0.85090    0.02900    0.23690    1.000
    H20      H        0.92410    0.99500    0.25040    1.000
    H21      H        0.91740    0.04720    0.21330    1.000
    C22      C        0.82800    0.23350    0.32730    1.000
    H22      H        0.84590    0.26000    0.35120    1.000
    H23      H        0.79030    0.20530    0.33510    1.000
    H24      H        0.81040    0.26260    0.30460    1.000
    C23      C        0.83770    0.43340    0.98270    1.000
    C24      C        0.87100    0.46530    0.02420    1.000
    H25      H        0.90980    0.43750    0.03710    1.000
    C25      C        0.78350    0.42400    0.07310    1.000
    C26      C        0.79230    0.36300    0.05920    1.000
    H26      H        0.82230    0.35420    0.03830    1.000
    C27      C        0.75240    0.30880    0.07800    1.000
    C28      C        0.70900    0.32500    0.10990    1.000
    C29      C        0.70390    0.39090    0.12190    1.000
    C30      C        0.74310    0.43610    0.10330    1.000
    H27      H        0.74130    0.48020    0.11280    1.000
    C31      C        0.75890    0.23390    0.06380    1.000
    H28      H        0.75130    0.20480    0.08710    1.000
    H29      H        0.80540    0.22630    0.05510    1.000
    H30      H        0.72410    0.22480    0.04070    1.000
    C32      C        0.66210    0.41050    0.15900    1.000
    H31      H        0.66880    0.45750    0.16500    1.000
    H32      H        0.67860    0.38470    0.18350    1.000
    H33      H        0.61270    0.40180    0.15180    1.000
    C33      C        0.20960    0.23960    0.06330    1.000
    C34      C        0.22990    0.16770    0.06900    1.000
    H34      H        0.23450    0.15650    0.09920    1.000
    C35      C        0.17500    0.12170    0.04540    1.000
    H35      H        0.12880    0.13210    0.05370    1.000
    H36      H        0.18630    0.07570    0.05220    1.000
    H37      H        0.17550    0.12830    0.01550    1.000
    C36      C        0.35830    0.16430    0.07140    1.000
    C37      C        0.41350    0.13830    0.05710    1.000
    H38      H        0.40840    0.11140    0.03300    1.000
    C38      C        0.47970    0.14970    0.07680    1.000
    C39      C        0.48630    0.19460    0.11080    1.000
    C40      C        0.42670    0.22190    0.12590    1.000
    C41      C        0.36080    0.20560    0.10630    1.000
    H39      H        0.31960    0.22210    0.11620    1.000
    C42      C        0.54390    0.11750    0.05920    1.000
    H40      H        0.57600    0.10150    0.08220    1.000
    H41      H        0.56740    0.15020    0.04330    1.000
    H42      H        0.52870    0.08060    0.04120    1.000
    C43      C        0.43430    0.27140    0.16590    1.000
    H43      H        0.40130    0.30780    0.16130    1.000
    H44      H        0.48170    0.28900    0.16950    1.000
    H45      H        0.42460    0.24720    0.19090    1.000
    C44      C        0.68620    0.05960    0.26930    1.000
    C45      C        0.75360    0.07310    0.28550    1.000
    H46      H        0.77440    0.04780    0.30790    1.000
    C46      C        0.79050    0.12390    0.26880    1.000
    C47      C        0.76270    0.16510    0.23540    1.000
    C48      C        0.80090    0.21340    0.21520    1.000
    H47      H        0.84810    0.22050    0.22490    1.000
    C49      C        0.77270    0.24950    0.18300    1.000
    H48      H        0.79940    0.28290    0.17160    1.000
    C50      C        0.70010    0.23740    0.16530    1.000
    C51      C        0.66930    0.27370    0.12870    1.000
    C52      C        0.60070    0.25870    0.11450    1.000
    H49      H        0.57960    0.28350    0.09190    1.000
    C53      C        0.55890    0.20730    0.13200    1.000
    C54      C        0.58800    0.17370    0.16660    1.000
    C55      C        0.55180    0.12220    0.18560    1.000
    H50      H        0.50550    0.11280    0.17510    1.000
    C56      C        0.58090    0.08560    0.21840    1.000
    H51      H        0.55440    0.05240    0.23020    1.000
    C57      C        0.65360    0.09790    0.23550    1.000
    C58      C        0.69110    0.14670    0.21960    1.000
    C59      C        0.65960    0.18880    0.18360    1.000
    C60      C        0.24360    0.90690    0.36010    1.000
    C61      C        0.20440    0.96010    0.32950    1.000
    H52      H        0.22350    0.00530    0.33450    1.000
    C62      C        0.21480    0.93500    0.28390    1.000
    H53      H        0.26330    0.94100    0.27850    1.000
    H54      H        0.18470    0.96030    0.26370    1.000
    H55      H        0.20260    0.88830    0.28150    1.000
    C63      C        0.10750    0.99430    0.36760    1.000
    C64      C        0.15510    0.01760    0.39930    1.000
    H56      H        0.20340    0.00950    0.39910    1.000
    C65      C        0.12750    0.05490    0.43280    1.000
    C66      C        0.05530    0.06730    0.43190    1.000
    C67      C        0.00820    0.04090    0.39810    1.000
    C68      C        0.03460    0.00320    0.36840    1.000
    H57      H        0.00380    0.98240    0.34800    1.000
    C69      C        0.02610    0.10680    0.46670    1.000
    C70      C        0.93070    0.05610    0.39730    1.000
    H58      H        0.90820    0.04800    0.36940    1.000
    H59      H        0.92440    0.10230    0.40470    1.000
    H60      H        0.90980    0.02770    0.41720    1.000
    C71      C        0.18230    0.08460    0.46820    1.000
    H61      H        0.15730    0.10750    0.48890    1.000
    H62      H        0.21310    0.11560    0.45570    1.000
    H63      H        0.20990    0.04880    0.48160    1.000
    C72      C        0.02700    0.18000    0.46630    1.000
    C73      C        0.02400    0.32140    0.46500    1.000
    C74      C        0.04790    0.28000    0.43180    1.000
    H64      H        0.06370    0.30210    0.40870    1.000
    C75      C        0.04940    0.21470    0.43120    1.000
    H65      H        0.06490    0.19170    0.40830    1.000
    C76      C        0.02290    0.39140    0.46570    1.000
    C77      C        0.04320    0.42620    0.42820    1.000
    C78      C        0.99690    0.43490    0.39230    1.000
    C79      C        0.01490    0.46370    0.35460    1.000
    H66      H        0.98480    0.46030    0.32990    1.000
    C80      C        0.07570    0.49570    0.35520    1.000
    C81      C        0.12410    0.49400    0.39140    1.000
    H67      H        0.16770    0.51500    0.39060    1.000
    C82      C        0.10930    0.46260    0.42780    1.000
    C83      C        0.16140    0.45650    0.46960    1.000
    H68      H        0.20450    0.48010    0.46590    1.000
    H69      H        0.17170    0.41000    0.47530    1.000
    H70      H        0.13940    0.47560    0.49290    1.000
    C84      C        0.92410    0.40220    0.39330    1.000
    H71      H        0.88950    0.42820    0.37640    1.000
    H72      H        0.91170    0.40060    0.42190    1.000
    H73      H        0.92540    0.35750    0.38210    1.000
    C85      C        0.89770    0.53890    0.01580    1.000
    H74      H        0.90250    0.54440    0.98610    1.000
    H75      H        0.94270    0.54610    0.03150    1.000
    H76      H        0.86410    0.57080    0.02450    1.000
    C86      C        0.15080    0.60520    0.27740    1.000
    H77      H        0.13380    0.57560    0.25490    1.000
    H78      H        0.19790    0.61970    0.27320    1.000
    H79      H        0.12020    0.64360    0.27770    1.000
    C87      C        0.21700    0.54000    0.32150    1.000
    C88      C        0.15170    0.56930    0.31860    1.000
    H80      H        0.14940    0.60200    0.34150    1.000
    Zn3      Zn       0.85819    0.35897    0.90850    1.000
    Zn4      Zn       0.64390    0.58890    0.67478    1.000
    O19      O        0.92580    0.32240    0.83230    1.000
    O20      O        0.96250    0.34130    0.89570    1.000
    O21      O        0.06070    0.31480    0.81370    1.000
    O22      O        0.73840    0.77130    0.53720    1.000
    O23      O        0.66720    0.76000    0.58960    1.000
    O24      O        0.79220    0.64910    0.55081    1.000
    O25      O        0.38280    0.89920    0.46490    1.000
    O26      O        0.27800    0.94520    0.46850    1.000
    O27      O        0.31920    0.97840    0.55440    1.000
    O28      O        0.64840    0.59440    0.73540    1.000
    O29      O        0.61300    0.69960    0.74260    1.000
    O30      O        0.57600    0.68300    0.82420    1.000
    O31      O        0.80980    0.41880    0.86920    1.000
    O32      O        0.70870    0.36320    0.87880    1.000
    O33      O        0.62520    0.45780    0.83300    1.000
    O34      O        0.72800    0.97390    0.81380    1.000
    O35      O        0.78450    0.05400    0.84610    1.000
    O36      O        0.59520    0.02540    0.81860    1.000
    C89      C        0.96960    0.32630    0.86020    1.000
    C90      C        0.04400    0.29870    0.85540    1.000
    H81      H        0.07860    0.31920    0.87640    1.000
    C91      C        0.04840    0.22060    0.85840    1.000
    H82      H        0.09610    0.20640    0.85570    1.000
    H83      H        0.01730    0.20100    0.83620    1.000
    H84      H        0.03440    0.20630    0.88530    1.000
    C92      C        0.09040    0.37400    0.80670    1.000
    C93      C        0.08230    0.43210    0.83100    1.000
    H85      H        0.05680    0.43060    0.85460    1.000
    C94      C        0.11230    0.49050    0.81950    1.000
    C95      C        0.14850    0.49300    0.78300    1.000
    C96      C        0.15510    0.43630    0.75730    1.000
    C97      C        0.12310    0.38040    0.76850    1.000
    H86      H        0.12220    0.34370    0.75040    1.000
    C98      C        0.11160    0.55370    0.84670    1.000
    H87      H        0.15880    0.56340    0.85860    1.000
    H88      H        0.08160    0.54660    0.86910    1.000
    H89      H        0.09390    0.59080    0.82950    1.000
    C99      C        0.19350    0.43640    0.71820    1.000
    H90      H        0.19010    0.39270    0.70540    1.000
    H91      H        0.24240    0.44730    0.72550    1.000
    H92      H        0.17260    0.46910    0.69860    1.000
    C100     C        0.63100    0.64930    0.75990    1.000
    C101     C        0.62780    0.64040    0.80530    1.000
    H93      H        0.61900    0.59310    0.81150    1.000
    C102     C        0.70010    0.66100    0.82560    1.000
    H94      H        0.73350    0.62560    0.82220    1.000
    H95      H        0.69730    0.66930    0.85520    1.000
    H96      H        0.71520    0.70110    0.81230    1.000
    C103     C        0.50640    0.66260    0.81090    1.000
    C104     C        0.49000    0.61030    0.78480    1.000
    H97      H        0.52650    0.58500    0.77520    1.000
    C105     C        0.41950    0.59260    0.77180    1.000
    C106     C        0.36780    0.63760    0.78740    1.000
    C107     C        0.38440    0.69210    0.81350    1.000
    C108     C        0.45470    0.70250    0.82480    1.000
    H98      H        0.46800    0.73810    0.84280    1.000
    C109     C        0.40120    0.53560    0.74010    1.000
    H99      H        0.35090    0.52900    0.73690    1.000
    H100     H        0.42410    0.49500    0.75040    1.000
    H101     H        0.41740    0.54720    0.71330    1.000
    C110     C        0.32800    0.73350    0.82730    1.000
    H102     H        0.34590    0.76000    0.85120    1.000
    H103     H        0.29030    0.70530    0.83510    1.000
    H104     H        0.31040    0.76260    0.80460    1.000
    C111     C        0.33770    0.93340    0.48270    1.000
    C112     C        0.37100    0.96530    0.52420    1.000
    H105     H        0.40980    0.93750    0.53710    1.000
    C113     C        0.28350    0.92400    0.57310    1.000
    C114     C        0.29230    0.86300    0.55920    1.000
    H106     H        0.32230    0.85420    0.53830    1.000
    C115     C        0.25240    0.80880    0.57800    1.000
    C116     C        0.20900    0.82500    0.60990    1.000
    C117     C        0.20390    0.89090    0.62190    1.000
    C118     C        0.24310    0.93610    0.60330    1.000
    H107     H        0.24130    0.98020    0.61280    1.000
    C119     C        0.25890    0.73390    0.56380    1.000
    H108     H        0.25130    0.70480    0.58710    1.000
    H109     H        0.30540    0.72630    0.55510    1.000
    H110     H        0.22410    0.72480    0.54070    1.000
    C120     C        0.16210    0.91050    0.65900    1.000
    H111     H        0.16880    0.95750    0.66500    1.000
    H112     H        0.17860    0.88470    0.68350    1.000
    H113     H        0.11270    0.90180    0.65180    1.000
    C121     C        0.70960    0.73960    0.56330    1.000
    C122     C        0.72990    0.66770    0.56900    1.000
    H114     H        0.73450    0.65650    0.59920    1.000
    C123     C        0.67500    0.62170    0.54540    1.000
    H115     H        0.62880    0.63210    0.55370    1.000
    H116     H        0.68630    0.57570    0.55220    1.000
    H117     H        0.67550    0.62830    0.51550    1.000
    C124     C        0.85830    0.66430    0.57140    1.000
    C125     C        0.91350    0.63830    0.55710    1.000
    H118     H        0.90840    0.61140    0.53300    1.000
    C126     C        0.97970    0.64970    0.57680    1.000
    C127     C        0.98630    0.69460    0.61080    1.000
    C128     C        0.92670    0.72190    0.62590    1.000
    C129     C        0.86080    0.70560    0.60630    1.000
    H119     H        0.81960    0.72210    0.61620    1.000
    C130     C        0.04390    0.61750    0.55920    1.000
    H120     H        0.07600    0.60150    0.58220    1.000
    H121     H        0.06740    0.65020    0.54330    1.000
    H122     H        0.02870    0.58060    0.54120    1.000
    C131     C        0.93430    0.77140    0.66590    1.000
    H123     H        0.90130    0.80780    0.66130    1.000
    H124     H        0.98170    0.78900    0.66950    1.000
    H125     H        0.92460    0.74720    0.69090    1.000
    C132     C        0.18620    0.55960    0.76930    1.000
    C133     C        0.25360    0.57310    0.78550    1.000
    H126     H        0.27440    0.54780    0.80790    1.000
    C134     C        0.29050    0.62390    0.76880    1.000
    C135     C        0.26270    0.66510    0.73540    1.000
    C136     C        0.30090    0.71340    0.71520    1.000
    H127     H        0.34810    0.72050    0.72490    1.000
    C137     C        0.27270    0.74950    0.68300    1.000
    H128     H        0.29940    0.78290    0.67160    1.000
    C138     C        0.20010    0.73740    0.66530    1.000
    C139     C        0.16930    0.77370    0.62870    1.000
    C140     C        0.10070    0.75870    0.61450    1.000
    H129     H        0.07960    0.78350    0.59190    1.000
    C141     C        0.05890    0.70730    0.63200    1.000
    C142     C        0.08800    0.67370    0.66660    1.000
    C143     C        0.05180    0.62220    0.68560    1.000
    H130     H        0.00550    0.61280    0.67510    1.000
    C144     C        0.08090    0.58560    0.71840    1.000
    H131     H        0.05440    0.55240    0.73020    1.000
    C145     C        0.15360    0.59790    0.73550    1.000
    C146     C        0.19110    0.64670    0.71960    1.000
    C147     C        0.15960    0.68880    0.68360    1.000
    C148     C        0.74360    0.40690    0.86010    1.000
    C149     C        0.70440    0.46010    0.82950    1.000
    H132     H        0.72350    0.50530    0.83450    1.000
    C150     C        0.71480    0.43500    0.78390    1.000
    H133     H        0.76330    0.44100    0.77850    1.000
    H134     H        0.68470    0.46030    0.76370    1.000
    H135     H        0.70260    0.38830    0.78150    1.000
    C151     C        0.60750    0.49430    0.86760    1.000
    C152     C        0.65510    0.51760    0.89930    1.000
    H136     H        0.70340    0.50950    0.89910    1.000
    C153     C        0.62750    0.55490    0.93280    1.000
    C154     C        0.55530    0.56730    0.93190    1.000
    C155     C        0.50820    0.54090    0.89810    1.000
    C156     C        0.53460    0.50320    0.86840    1.000
    H137     H        0.50380    0.48240    0.84800    1.000
    C157     C        0.52610    0.60680    0.96670    1.000
    C158     C        0.43070    0.55610    0.89730    1.000
    H138     H        0.40820    0.54800    0.86940    1.000
    H139     H        0.42440    0.60230    0.90470    1.000
    H140     H        0.40980    0.52770    0.91720    1.000
    C159     C        0.68230    0.58460    0.96820    1.000
    H141     H        0.65730    0.60750    0.98890    1.000
    H142     H        0.71310    0.61560    0.95570    1.000
    H143     H        0.70990    0.54880    0.98160    1.000
    C160     C        0.52700    0.68000    0.96630    1.000
    C161     C        0.52400    0.82140    0.96500    1.000
    C162     C        0.54790    0.78000    0.93180    1.000
    H144     H        0.56370    0.80210    0.90870    1.000
    C163     C        0.54940    0.71470    0.93120    1.000
    H145     H        0.56490    0.69170    0.90830    1.000
    C164     C        0.52290    0.89140    0.96570    1.000
    C165     C        0.54320    0.92620    0.92820    1.000
    C166     C        0.49690    0.93490    0.89230    1.000
    C167     C        0.51490    0.96370    0.85460    1.000
    H146     H        0.48480    0.96030    0.82990    1.000
    C168     C        0.57570    0.99570    0.85520    1.000
    C169     C        0.62410    0.99400    0.89140    1.000
    H147     H        0.66770    0.01500    0.89060    1.000
    C170     C        0.60930    0.96260    0.92780    1.000
    C171     C        0.66140    0.95650    0.96960    1.000
    H148     H        0.70450    0.98010    0.96590    1.000
    H149     H        0.67170    0.91000    0.97530    1.000
    H150     H        0.63940    0.97560    0.99290    1.000
    C172     C        0.42410    0.90220    0.89330    1.000
    H151     H        0.38950    0.92820    0.87640    1.000
    H152     H        0.41170    0.90060    0.92190    1.000
    H153     H        0.42540    0.85750    0.88210    1.000
    C173     C        0.39770    0.03890    0.51580    1.000
    H154     H        0.40250    0.04440    0.48610    1.000
    H155     H        0.44270    0.04610    0.53150    1.000
    H156     H        0.36410    0.07080    0.52450    1.000
    C174     C        0.65080    0.10520    0.77740    1.000
    H157     H        0.63380    0.07560    0.75490    1.000
    H158     H        0.69790    0.11970    0.77320    1.000
    H159     H        0.62020    0.14360    0.77770    1.000
    C175     C        0.71700    0.04000    0.82150    1.000
    C176     C        0.65170    0.06930    0.81860    1.000
    H160     H        0.64940    0.10200    0.84150    1.000
    Zn5      Zn       0.64181    0.85897    0.59150    1.000
    Zn6      Zn       0.85610    0.08890    0.82522    1.000
    O37      O        0.57420    0.82240    0.66770    1.000
    O38      O        0.53750    0.84130    0.60430    1.000
    O39      O        0.43930    0.81480    0.68630    1.000
    O40      O        0.76160    0.27130    0.96280    1.000
    O41      O        0.83280    0.26000    0.91040    1.000
    O42      O        0.70780    0.14910    0.94919    1.000
    O43      O        0.11720    0.39920    0.03510    1.000
    O44      O        0.22200    0.44520    0.03150    1.000
    O45      O        0.18080    0.47840    0.94560    1.000
    O46      O        0.85160    0.09440    0.76460    1.000
    O47      O        0.88700    0.19960    0.75740    1.000
    O48      O        0.92400    0.18300    0.67580    1.000
    O49      O        0.69020    0.91880    0.63080    1.000
    O50      O        0.79130    0.86320    0.62120    1.000
    O51      O        0.87480    0.95780    0.66700    1.000
    O52      O        0.77200    0.47390    0.68620    1.000
    O53      O        0.71550    0.55400    0.65390    1.000
    O54      O        0.90480    0.52540    0.68140    1.000
    C177     C        0.53040    0.82630    0.63980    1.000
    C178     C        0.45600    0.79870    0.64460    1.000
    H161     H        0.42140    0.81920    0.62360    1.000
    C179     C        0.45160    0.72060    0.64160    1.000
    H162     H        0.40390    0.70640    0.64430    1.000
    H163     H        0.48270    0.70100    0.66380    1.000
    H164     H        0.46560    0.70630    0.61470    1.000
    C180     C        0.40960    0.87400    0.69330    1.000
    C181     C        0.41770    0.93210    0.66900    1.000
    H165     H        0.44320    0.93060    0.64540    1.000
    C182     C        0.38770    0.99050    0.68050    1.000
    C183     C        0.35150    0.99300    0.71700    1.000
    C184     C        0.34490    0.93630    0.74270    1.000
    C185     C        0.37690    0.88040    0.73150    1.000
    H166     H        0.37780    0.84370    0.74960    1.000
    C186     C        0.38840    0.05370    0.65330    1.000
    H167     H        0.34120    0.06340    0.64140    1.000
    H168     H        0.41840    0.04660    0.63090    1.000
    H169     H        0.40610    0.09080    0.67050    1.000
    C187     C        0.30650    0.93640    0.78180    1.000
    H170     H        0.30990    0.89270    0.79460    1.000
    H171     H        0.25760    0.94730    0.77450    1.000
    H172     H        0.32740    0.96910    0.80140    1.000
    C188     C        0.86900    0.14930    0.74010    1.000
    C189     C        0.87220    0.14040    0.69470    1.000
    H173     H        0.88100    0.09310    0.68850    1.000
    C190     C        0.79990    0.16100    0.67440    1.000
    H174     H        0.76650    0.12560    0.67780    1.000
    H175     H        0.80270    0.16930    0.64480    1.000
    H176     H        0.78480    0.20110    0.68770    1.000
    C191     C        0.99360    0.16260    0.68910    1.000
    C192     C        0.01000    0.11030    0.71520    1.000
    H177     H        0.97350    0.08500    0.72480    1.000
    C193     C        0.08050    0.09260    0.72820    1.000
    C194     C        0.13220    0.13760    0.71260    1.000
    C195     C        0.11560    0.19210    0.68650    1.000
    C196     C        0.04530    0.20250    0.67520    1.000
    H178     H        0.03200    0.23810    0.65720    1.000
    C197     C        0.09880    0.03560    0.75990    1.000
    H179     H        0.14910    0.02900    0.76310    1.000
    H180     H        0.07590    0.99500    0.74960    1.000
    H181     H        0.08260    0.04720    0.78670    1.000
    C198     C        0.17200    0.23350    0.67270    1.000
    H182     H        0.15410    0.26000    0.64880    1.000
    H183     H        0.20970    0.20530    0.66490    1.000
    H184     H        0.18960    0.26260    0.69540    1.000
    C199     C        0.16230    0.43340    0.01730    1.000
    C200     C        0.12900    0.46530    0.97580    1.000
    H185     H        0.09020    0.43750    0.96290    1.000
    C201     C        0.21650    0.42400    0.92690    1.000
    C202     C        0.20770    0.36300    0.94080    1.000
    H186     H        0.17770    0.35420    0.96170    1.000
    C203     C        0.24760    0.30880    0.92200    1.000
    C204     C        0.29100    0.32500    0.89010    1.000
    C205     C        0.29610    0.39090    0.87810    1.000
    C206     C        0.25690    0.43610    0.89670    1.000
    H187     H        0.25870    0.48020    0.88720    1.000
    C207     C        0.24110    0.23390    0.93620    1.000
    H188     H        0.24870    0.20480    0.91290    1.000
    H189     H        0.19460    0.22630    0.94490    1.000
    H190     H        0.27590    0.22480    0.95930    1.000
    C208     C        0.33790    0.41050    0.84100    1.000
    H191     H        0.33120    0.45750    0.83500    1.000
    H192     H        0.32140    0.38470    0.81650    1.000
    H193     H        0.38730    0.40180    0.84820    1.000
    C209     C        0.79040    0.23960    0.93670    1.000
    C210     C        0.77010    0.16770    0.93100    1.000
    H194     H        0.76550    0.15650    0.90080    1.000
    C211     C        0.82500    0.12170    0.95460    1.000
    H195     H        0.87120    0.13210    0.94630    1.000
    H196     H        0.81370    0.07570    0.94780    1.000
    H197     H        0.82450    0.12830    0.98450    1.000
    C212     C        0.64170    0.16430    0.92860    1.000
    C213     C        0.58650    0.13830    0.94290    1.000
    H198     H        0.59160    0.11140    0.96700    1.000
    C214     C        0.52030    0.14970    0.92320    1.000
    C215     C        0.51370    0.19460    0.88920    1.000
    C216     C        0.57330    0.22190    0.87410    1.000
    C217     C        0.63920    0.20560    0.89370    1.000
    H199     H        0.68040    0.22210    0.88380    1.000
    C218     C        0.45610    0.11750    0.94080    1.000
    H200     H        0.42400    0.10150    0.91780    1.000
    H201     H        0.43260    0.15020    0.95670    1.000
    H202     H        0.47130    0.08060    0.95880    1.000
    C219     C        0.56570    0.27140    0.83410    1.000
    H203     H        0.59870    0.30780    0.83870    1.000
    H204     H        0.51830    0.28900    0.83050    1.000
    H205     H        0.57540    0.24720    0.80910    1.000
    C220     C        0.31380    0.05960    0.73070    1.000
    C221     C        0.24640    0.07310    0.71450    1.000
    H206     H        0.22560    0.04780    0.69210    1.000
    C222     C        0.20950    0.12390    0.73120    1.000
    C223     C        0.23730    0.16510    0.76460    1.000
    C224     C        0.19910    0.21340    0.78480    1.000
    H207     H        0.15190    0.22050    0.77510    1.000
    C225     C        0.22730    0.24950    0.81700    1.000
    H208     H        0.20060    0.28290    0.82840    1.000
    C226     C        0.29990    0.23740    0.83470    1.000
    C227     C        0.33070    0.27370    0.87130    1.000
    C228     C        0.39930    0.25870    0.88550    1.000
    H209     H        0.42040    0.28350    0.90810    1.000
    C229     C        0.44110    0.20730    0.86800    1.000
    C230     C        0.41200    0.17370    0.83340    1.000
    C231     C        0.44820    0.12220    0.81440    1.000
    H210     H        0.49450    0.11280    0.82490    1.000
    C232     C        0.41910    0.08560    0.78160    1.000
    H211     H        0.44560    0.05240    0.76980    1.000
    C233     C        0.34640    0.09790    0.76450    1.000
    C234     C        0.30890    0.14670    0.78040    1.000
    C235     C        0.34040    0.18880    0.81640    1.000
    C236     C        0.75640    0.90690    0.63990    1.000
    C237     C        0.79560    0.96010    0.67050    1.000
    H212     H        0.77650    0.00530    0.66550    1.000
    C238     C        0.78520    0.93500    0.71610    1.000
    H213     H        0.73670    0.94100    0.72150    1.000
    H214     H        0.81530    0.96030    0.73630    1.000
    H215     H        0.79740    0.88830    0.71850    1.000
    C239     C        0.89250    0.99430    0.63240    1.000
    C240     C        0.84490    0.01760    0.60070    1.000
    H216     H        0.79660    0.00950    0.60090    1.000
    C241     C        0.87250    0.05490    0.56720    1.000
    C242     C        0.94470    0.06730    0.56810    1.000
    C243     C        0.99180    0.04090    0.60190    1.000
    C244     C        0.96540    0.00320    0.63160    1.000
    H217     H        0.99620    0.98240    0.65200    1.000
    C245     C        0.97390    0.10680    0.53330    1.000
    C246     C        0.06930    0.05610    0.60270    1.000
    H218     H        0.09180    0.04800    0.63060    1.000
    H219     H        0.07560    0.10230    0.59530    1.000
    H220     H        0.09020    0.02770    0.58280    1.000
    C247     C        0.81770    0.08460    0.53180    1.000
    H221     H        0.84270    0.10750    0.51110    1.000
    H222     H        0.78690    0.11560    0.54430    1.000
    H223     H        0.79010    0.04880    0.51840    1.000
    C248     C        0.97300    0.18000    0.53370    1.000
    C249     C        0.97600    0.32140    0.53500    1.000
    C250     C        0.95210    0.28000    0.56820    1.000
    H224     H        0.93630    0.30210    0.59130    1.000
    C251     C        0.95060    0.21470    0.56880    1.000
    H225     H        0.93510    0.19170    0.59170    1.000
    C252     C        0.97710    0.39140    0.53430    1.000
    C253     C        0.95680    0.42620    0.57180    1.000
    C254     C        0.00310    0.43490    0.60770    1.000
    C255     C        0.98510    0.46370    0.64540    1.000
    H226     H        0.01520    0.46030    0.67010    1.000
    C256     C        0.92430    0.49570    0.64480    1.000
    C257     C        0.87590    0.49400    0.60860    1.000
    H227     H        0.83230    0.51500    0.60940    1.000
    C258     C        0.89070    0.46260    0.57220    1.000
    C259     C        0.83860    0.45650    0.53040    1.000
    H228     H        0.79550    0.48010    0.53410    1.000
    H229     H        0.82830    0.41000    0.52470    1.000
    H230     H        0.86060    0.47560    0.50710    1.000
    C260     C        0.07590    0.40220    0.60670    1.000
    H231     H        0.11050    0.42820    0.62360    1.000
    H232     H        0.08830    0.40060    0.57810    1.000
    H233     H        0.07460    0.35750    0.61790    1.000
    C261     C        0.10230    0.53890    0.98420    1.000
    H234     H        0.09750    0.54440    0.01390    1.000
    H235     H        0.05730    0.54610    0.96850    1.000
    H236     H        0.13590    0.57080    0.97550    1.000
    C262     C        0.84920    0.60520    0.72260    1.000
    H237     H        0.86620    0.57560    0.74510    1.000
    H238     H        0.80210    0.61970    0.72680    1.000
    H239     H        0.87980    0.64360    0.72230    1.000
    C263     C        0.78300    0.54000    0.67850    1.000
    C264     C        0.84830    0.56930    0.68140    1.000
    H240     H        0.85060    0.60200    0.65850    1.000
    Zn7      Zn       0.14181    0.35897    0.09150    1.000
    Zn8      Zn       0.35610    0.58890    0.32522    1.000
    O55      O        0.07420    0.32240    0.16770    1.000
    O56      O        0.03750    0.34130    0.10430    1.000
    O57      O        0.93930    0.31480    0.18630    1.000
    O58      O        0.26160    0.77130    0.46280    1.000
    O59      O        0.33280    0.76000    0.41040    1.000
    O60      O        0.20780    0.64910    0.44919    1.000
    O61      O        0.61720    0.89920    0.53510    1.000
    O62      O        0.72200    0.94520    0.53150    1.000
    O63      O        0.68080    0.97840    0.44560    1.000
    O64      O        0.35160    0.59440    0.26460    1.000
    O65      O        0.38700    0.69960    0.25740    1.000
    O66      O        0.42400    0.68300    0.17580    1.000
    O67      O        0.19020    0.41880    0.13080    1.000
    O68      O        0.29130    0.36320    0.12120    1.000
    O69      O        0.37480    0.45780    0.16700    1.000
    O70      O        0.27200    0.97390    0.18620    1.000
    O71      O        0.21550    0.05400    0.15390    1.000
    O72      O        0.40480    0.02540    0.18140    1.000
    C265     C        0.03040    0.32630    0.13980    1.000
    C266     C        0.95600    0.29870    0.14460    1.000
    H241     H        0.92140    0.31920    0.12360    1.000
    C267     C        0.95160    0.22060    0.14160    1.000
    H242     H        0.90390    0.20640    0.14430    1.000
    H243     H        0.98270    0.20100    0.16380    1.000
    H244     H        0.96560    0.20630    0.11470    1.000
    C268     C        0.90960    0.37400    0.19330    1.000
    C269     C        0.91770    0.43210    0.16900    1.000
    H245     H        0.94320    0.43060    0.14540    1.000
    C270     C        0.88770    0.49050    0.18050    1.000
    C271     C        0.85150    0.49300    0.21700    1.000
    C272     C        0.84490    0.43630    0.24270    1.000
    C273     C        0.87690    0.38040    0.23150    1.000
    H246     H        0.87780    0.34370    0.24960    1.000
    C274     C        0.88840    0.55370    0.15330    1.000
    H247     H        0.84120    0.56340    0.14140    1.000
    H248     H        0.91840    0.54660    0.13090    1.000
    H249     H        0.90610    0.59080    0.17050    1.000
    C275     C        0.80650    0.43640    0.28180    1.000
    H250     H        0.80990    0.39270    0.29460    1.000
    H251     H        0.75760    0.44730    0.27450    1.000
    H252     H        0.82740    0.46910    0.30140    1.000
    C276     C        0.36900    0.64930    0.24010    1.000
    C277     C        0.37220    0.64040    0.19470    1.000
    H253     H        0.38100    0.59310    0.18850    1.000
    C278     C        0.29990    0.66100    0.17440    1.000
    H254     H        0.26650    0.62560    0.17780    1.000
    H255     H        0.30270    0.66930    0.14480    1.000
    H256     H        0.28480    0.70110    0.18770    1.000
    C279     C        0.49360    0.66260    0.18910    1.000
    C280     C        0.51000    0.61030    0.21520    1.000
    H257     H        0.47350    0.58500    0.22480    1.000
    C281     C        0.58050    0.59260    0.22820    1.000
    C282     C        0.63220    0.63760    0.21260    1.000
    C283     C        0.61560    0.69210    0.18650    1.000
    C284     C        0.54530    0.70250    0.17520    1.000
    H258     H        0.53200    0.73810    0.15720    1.000
    C285     C        0.59880    0.53560    0.25990    1.000
    H259     H        0.64910    0.52900    0.26310    1.000
    H260     H        0.57590    0.49500    0.24960    1.000
    H261     H        0.58260    0.54720    0.28670    1.000
    C286     C        0.67200    0.73350    0.17270    1.000
    H262     H        0.65410    0.76000    0.14880    1.000
    H263     H        0.70970    0.70530    0.16490    1.000
    H264     H        0.68960    0.76260    0.19540    1.000
    C287     C        0.66230    0.93340    0.51730    1.000
    C288     C        0.62900    0.96530    0.47580    1.000
    H265     H        0.59020    0.93750    0.46290    1.000
    C289     C        0.71650    0.92400    0.42690    1.000
    C290     C        0.70770    0.86300    0.44080    1.000
    H266     H        0.67770    0.85420    0.46170    1.000
    C291     C        0.74760    0.80880    0.42200    1.000
    C292     C        0.79100    0.82500    0.39010    1.000
    C293     C        0.79610    0.89090    0.37810    1.000
    C294     C        0.75690    0.93610    0.39670    1.000
    H267     H        0.75870    0.98020    0.38720    1.000
    C295     C        0.74110    0.73390    0.43620    1.000
    H268     H        0.74870    0.70480    0.41290    1.000
    H269     H        0.69460    0.72630    0.44490    1.000
    H270     H        0.77590    0.72480    0.45930    1.000
    C296     C        0.83790    0.91050    0.34100    1.000
    H271     H        0.83120    0.95750    0.33500    1.000
    H272     H        0.82140    0.88470    0.31650    1.000
    H273     H        0.88730    0.90180    0.34820    1.000
    C297     C        0.29040    0.73960    0.43670    1.000
    C298     C        0.27010    0.66770    0.43100    1.000
    H274     H        0.26550    0.65650    0.40080    1.000
    C299     C        0.32500    0.62170    0.45460    1.000
    H275     H        0.37120    0.63210    0.44630    1.000
    H276     H        0.31370    0.57570    0.44780    1.000
    H277     H        0.32450    0.62830    0.48450    1.000
    C300     C        0.14170    0.66430    0.42860    1.000
    C301     C        0.08650    0.63830    0.44290    1.000
    H278     H        0.09160    0.61140    0.46700    1.000
    C302     C        0.02030    0.64970    0.42320    1.000
    C303     C        0.01370    0.69460    0.38920    1.000
    C304     C        0.07330    0.72190    0.37410    1.000
    C305     C        0.13920    0.70560    0.39370    1.000
    H279     H        0.18040    0.72210    0.38380    1.000
    C306     C        0.95610    0.61750    0.44080    1.000
    H280     H        0.92400    0.60150    0.41780    1.000
    H281     H        0.93260    0.65020    0.45670    1.000
    H282     H        0.97130    0.58060    0.45880    1.000
    C307     C        0.06570    0.77140    0.33410    1.000
    H283     H        0.09870    0.80780    0.33870    1.000
    H284     H        0.01830    0.78900    0.33050    1.000
    H285     H        0.07540    0.74720    0.30910    1.000
    C308     C        0.81380    0.55960    0.23070    1.000
    C309     C        0.74640    0.57310    0.21450    1.000
    H286     H        0.72560    0.54780    0.19210    1.000
    C310     C        0.70950    0.62390    0.23120    1.000
    C311     C        0.73730    0.66510    0.26460    1.000
    C312     C        0.69910    0.71340    0.28480    1.000
    H287     H        0.65190    0.72050    0.27510    1.000
    C313     C        0.72730    0.74950    0.31700    1.000
    H288     H        0.70060    0.78290    0.32840    1.000
    C314     C        0.79990    0.73740    0.33470    1.000
    C315     C        0.83070    0.77370    0.37130    1.000
    C316     C        0.89930    0.75870    0.38550    1.000
    H289     H        0.92040    0.78350    0.40810    1.000
    C317     C        0.94110    0.70730    0.36800    1.000
    C318     C        0.91200    0.67370    0.33340    1.000
    C319     C        0.94820    0.62220    0.31440    1.000
    H290     H        0.99450    0.61280    0.32490    1.000
    C320     C        0.91910    0.58560    0.28160    1.000
    H291     H        0.94560    0.55240    0.26980    1.000
    C321     C        0.84640    0.59790    0.26450    1.000
    C322     C        0.80890    0.64670    0.28040    1.000
    C323     C        0.84040    0.68880    0.31640    1.000
    C324     C        0.25640    0.40690    0.13990    1.000
    C325     C        0.29560    0.46010    0.17050    1.000
    H292     H        0.27650    0.50530    0.16550    1.000
    C326     C        0.28520    0.43500    0.21610    1.000
    H293     H        0.23670    0.44100    0.22150    1.000
    H294     H        0.31530    0.46030    0.23630    1.000
    H295     H        0.29740    0.38830    0.21850    1.000
    C327     C        0.39250    0.49430    0.13240    1.000
    C328     C        0.34490    0.51760    0.10070    1.000
    H296     H        0.29660    0.50950    0.10090    1.000
    C329     C        0.37250    0.55490    0.06720    1.000
    C330     C        0.44470    0.56730    0.06810    1.000
    C331     C        0.49180    0.54090    0.10190    1.000
    C332     C        0.46540    0.50320    0.13160    1.000
    H297     H        0.49620    0.48240    0.15200    1.000
    C333     C        0.47390    0.60680    0.03330    1.000
    C334     C        0.56930    0.55610    0.10270    1.000
    H298     H        0.59180    0.54800    0.13060    1.000
    H299     H        0.57560    0.60230    0.09530    1.000
    H300     H        0.59020    0.52770    0.08280    1.000
    C335     C        0.31770    0.58460    0.03180    1.000
    H301     H        0.34270    0.60750    0.01110    1.000
    H302     H        0.28690    0.61560    0.04430    1.000
    H303     H        0.29010    0.54880    0.01840    1.000
    C336     C        0.47300    0.68000    0.03370    1.000
    C337     C        0.47600    0.82140    0.03500    1.000
    C338     C        0.45210    0.78000    0.06820    1.000
    H304     H        0.43630    0.80210    0.09130    1.000
    C339     C        0.45060    0.71470    0.06880    1.000
    H305     H        0.43510    0.69170    0.09170    1.000
    C340     C        0.47710    0.89140    0.03430    1.000
    C341     C        0.45680    0.92620    0.07180    1.000
    C342     C        0.50310    0.93490    0.10770    1.000
    C343     C        0.48510    0.96370    0.14540    1.000
    H306     H        0.51520    0.96030    0.17010    1.000
    C344     C        0.42430    0.99570    0.14480    1.000
    C345     C        0.37590    0.99400    0.10860    1.000
    H307     H        0.33230    0.01500    0.10940    1.000
    C346     C        0.39070    0.96260    0.07220    1.000
    C347     C        0.33860    0.95650    0.03040    1.000
    H308     H        0.29550    0.98010    0.03410    1.000
    H309     H        0.32830    0.91000    0.02470    1.000
    H310     H        0.36060    0.97560    0.00710    1.000
    C348     C        0.57590    0.90220    0.10670    1.000
    H311     H        0.61050    0.92820    0.12360    1.000
    H312     H        0.58830    0.90060    0.07810    1.000
    H313     H        0.57460    0.85750    0.11790    1.000
    C349     C        0.60230    0.03890    0.48420    1.000
    H314     H        0.59750    0.04440    0.51390    1.000
    H315     H        0.55730    0.04610    0.46850    1.000
    H316     H        0.63590    0.07080    0.47550    1.000
    C350     C        0.34920    0.10520    0.22260    1.000
    H317     H        0.36620    0.07560    0.24510    1.000
    H318     H        0.30210    0.11970    0.22680    1.000
    H319     H        0.37980    0.14360    0.22230    1.000
    C351     C        0.28300    0.04000    0.17850    1.000
    C352     C        0.34830    0.06930    0.18140    1.000
    H320     H        0.35060    0.10200    0.15850    1.000
    C353     C        0.00000    0.07210    0.50000    1.000
    H321     H        0.00000    0.02540    0.50000    1.000
    C354     C        0.00000    0.21160    0.50000    1.000
    C355     C        0.00000    0.28350    0.50000    1.000
    C356     C        0.00000    0.42080    0.50000    1.000
    H322     H        0.00000    0.46740    0.50000    1.000
    C357     C        0.50000    0.57210    0.00000    1.000
    H323     H        0.50000    0.52540    0.00000    1.000
    C358     C        0.50000    0.71160    0.00000    1.000
    C359     C        0.50000    0.78350    0.00000    1.000
    C360     C        0.50000    0.92080    0.00000    1.000
    H324     H        0.50000    0.96740    0.00000    1.000
