# CIF file generated by openbabel 3.1.0, see https://openbabel.org
data_I
_chemical_name_common 'image0'
_cell_length_a 47.0072
_cell_length_b 47.0072
_cell_length_c 47.0072
_cell_angle_alpha 90
_cell_angle_beta 90
_cell_angle_gamma 90
_space_group_name_H-M_alt 'P 1'
_space_group_name_Hall 'P 1'
loop_
    _symmetry_equiv_pos_as_xyz
    x,y,z
loop_
    _atom_site_label
    _atom_site_type_symbol
    _atom_site_fract_x
    _atom_site_fract_y
    _atom_site_fract_z
    _atom_site_occupancy
    Cu1      Cu       0.37669    0.41280    0.52951    1.000
    Cu2      Cu       0.35004    0.47543    0.55795    1.000
    N1       N        0.35846    0.47281    0.51647    1.000
    N2       N        0.37086    0.44880    0.50452    1.000
    N3       N        0.39342    0.42807    0.56541    1.000
    N4       N        0.38591    0.45514    0.57553    1.000
    N5       N        0.35839    0.51677    0.40799    1.000
    N6       N        0.38795    0.51573    0.40967    1.000
    C1       C        0.34820    0.50436    0.43064    1.000
    H1       H        0.32900    0.50190    0.43480    1.000
    N7       N        0.37040    0.49569    0.44704    1.000
    C2       C        0.37679    0.45450    0.47806    1.000
    H2       H        0.38520    0.44210    0.46510    1.000
    N8       N        0.48153    0.43822    0.64324    1.000
    N9       N        0.44046    0.43652    0.62232    1.000
    N10      N        0.46175    0.42572    0.66165    1.000
    N11      N        0.42011    0.43877    0.60141    1.000
    C3       C        0.40189    0.46092    0.59725    1.000
    H3       H        0.40110    0.47740    0.60820    1.000
    C4       C        0.43733    0.42510    0.64864    1.000
    H4       H        0.42050    0.41800    0.65620    1.000
    C5       C        0.41405    0.41872    0.58133    1.000
    H5       H        0.42320    0.40130    0.57930    1.000
    C6       C        0.35769    0.49248    0.49719    1.000
    H6       H        0.35080    0.51090    0.49970    1.000
    C7       C        0.39464    0.50334    0.43355    1.000
    H7       H        0.41300    0.50030    0.44020    1.000
    C8       C        0.46810    0.44479    0.61991    1.000
    H8       H        0.47610    0.45370    0.60420    1.000
    N12      N        0.36856    0.48185    0.47271    1.000
    Cu3      Cu       0.37669    0.91280    0.02951    1.000
    Cu4      Cu       0.35004    0.97543    0.05795    1.000
    N13      N        0.35846    0.97281    0.01647    1.000
    N14      N        0.37086    0.94880    0.00452    1.000
    N15      N        0.39342    0.92807    0.06541    1.000
    N16      N        0.38591    0.95514    0.07553    1.000
    N17      N        0.35839    0.01677    0.90799    1.000
    N18      N        0.38795    0.01573    0.90967    1.000
    C9       C        0.34820    0.00436    0.93064    1.000
    H9       H        0.32900    0.00190    0.93480    1.000
    N19      N        0.37040    0.99569    0.94704    1.000
    C10      C        0.37679    0.95450    0.97806    1.000
    H10      H        0.38520    0.94210    0.96510    1.000
    N20      N        0.48153    0.93822    0.14324    1.000
    N21      N        0.44046    0.93652    0.12232    1.000
    N22      N        0.46175    0.92572    0.16165    1.000
    N23      N        0.42011    0.93877    0.10141    1.000
    C11      C        0.40189    0.96092    0.09725    1.000
    H11      H        0.40110    0.97740    0.10820    1.000
    C12      C        0.43733    0.92510    0.14864    1.000
    H12      H        0.42050    0.91800    0.15620    1.000
    C13      C        0.41405    0.91872    0.08133    1.000
    H13      H        0.42320    0.90130    0.07930    1.000
    C14      C        0.35769    0.99248    0.99719    1.000
    H14      H        0.35080    0.01090    0.99970    1.000
    C15      C        0.39464    0.00334    0.93355    1.000
    H15      H        0.41300    0.00030    0.94020    1.000
    C16      C        0.46810    0.94479    0.11991    1.000
    H16      H        0.47610    0.95370    0.10420    1.000
    N24      N        0.36856    0.98185    0.97271    1.000
    Cu5      Cu       0.87669    0.41280    0.02951    1.000
    Cu6      Cu       0.85004    0.47543    0.05795    1.000
    N25      N        0.85846    0.47281    0.01647    1.000
    N26      N        0.87086    0.44880    0.00452    1.000
    N27      N        0.89342    0.42807    0.06541    1.000
    N28      N        0.88591    0.45514    0.07553    1.000
    N29      N        0.85839    0.51677    0.90799    1.000
    N30      N        0.88795    0.51573    0.90967    1.000
    C17      C        0.84820    0.50436    0.93064    1.000
    H17      H        0.82900    0.50190    0.93480    1.000
    N31      N        0.87040    0.49569    0.94704    1.000
    C18      C        0.87679    0.45450    0.97806    1.000
    H18      H        0.88520    0.44210    0.96510    1.000
    N32      N        0.98153    0.43822    0.14324    1.000
    N33      N        0.94046    0.43652    0.12232    1.000
    N34      N        0.96175    0.42572    0.16165    1.000
    N35      N        0.92011    0.43877    0.10141    1.000
    C19      C        0.90189    0.46092    0.09725    1.000
    H19      H        0.90110    0.47740    0.10820    1.000
    C20      C        0.93733    0.42510    0.14864    1.000
    H20      H        0.92050    0.41800    0.15620    1.000
    C21      C        0.91405    0.41872    0.08133    1.000
    H21      H        0.92320    0.40130    0.07930    1.000
    C22      C        0.85769    0.49248    0.99719    1.000
    H22      H        0.85080    0.51090    0.99970    1.000
    C23      C        0.89464    0.50334    0.93355    1.000
    H23      H        0.91300    0.50030    0.94020    1.000
    C24      C        0.96810    0.44479    0.11991    1.000
    H24      H        0.97610    0.45370    0.10420    1.000
    N36      N        0.86856    0.48185    0.97271    1.000
    Cu7      Cu       0.87669    0.91280    0.52951    1.000
    Cu8      Cu       0.85004    0.97543    0.55795    1.000
    N37      N        0.85846    0.97281    0.51647    1.000
    N38      N        0.87086    0.94880    0.50452    1.000
    N39      N        0.89342    0.92807    0.56541    1.000
    N40      N        0.88591    0.95514    0.57553    1.000
    N41      N        0.85839    0.01677    0.40799    1.000
    N42      N        0.88795    0.01573    0.40967    1.000
    C25      C        0.84820    0.00436    0.43064    1.000
    H25      H        0.82900    0.00190    0.43480    1.000
    N43      N        0.87040    0.99569    0.44704    1.000
    C26      C        0.87679    0.95450    0.47806    1.000
    H26      H        0.88520    0.94210    0.46510    1.000
    N44      N        0.98153    0.93822    0.64324    1.000
    N45      N        0.94046    0.93652    0.62232    1.000
    N46      N        0.96175    0.92572    0.66165    1.000
    N47      N        0.92011    0.93877    0.60141    1.000
    C27      C        0.90189    0.96092    0.59725    1.000
    H27      H        0.90110    0.97740    0.60820    1.000
    C28      C        0.93733    0.92510    0.64864    1.000
    H28      H        0.92050    0.91800    0.65620    1.000
    C29      C        0.91405    0.91872    0.58133    1.000
    H29      H        0.92320    0.90130    0.57930    1.000
    C30      C        0.85769    0.99248    0.49719    1.000
    H30      H        0.85080    0.01090    0.49970    1.000
    C31      C        0.89464    0.00334    0.43355    1.000
    H31      H        0.91300    0.00030    0.44020    1.000
    C32      C        0.96810    0.94479    0.61991    1.000
    H32      H        0.97610    0.95370    0.60420    1.000
    N48      N        0.86856    0.98185    0.47271    1.000
    Cu9      Cu       0.87331    0.33720    0.02951    1.000
    Cu10     Cu       0.89996    0.27457    0.05795    1.000
    N49      N        0.89154    0.27719    0.01647    1.000
    N50      N        0.87914    0.30120    0.00452    1.000
    N51      N        0.85658    0.32193    0.06541    1.000
    N52      N        0.86409    0.29486    0.07553    1.000
    N53      N        0.89161    0.23323    0.90799    1.000
    N54      N        0.86205    0.23427    0.90967    1.000
    C33      C        0.90180    0.24564    0.93064    1.000
    H33      H        0.92100    0.24810    0.93480    1.000
    N55      N        0.87960    0.25431    0.94704    1.000
    C34      C        0.87321    0.29550    0.97806    1.000
    H34      H        0.86480    0.30790    0.96510    1.000
    N56      N        0.76847    0.31178    0.14324    1.000
    N57      N        0.80954    0.31348    0.12232    1.000
    N58      N        0.78825    0.32428    0.16165    1.000
    N59      N        0.82989    0.31123    0.10141    1.000
    C35      C        0.84811    0.28908    0.09725    1.000
    H35      H        0.84890    0.27260    0.10820    1.000
    C36      C        0.81267    0.32490    0.14864    1.000
    H36      H        0.82950    0.33200    0.15620    1.000
    C37      C        0.83595    0.33128    0.08133    1.000
    H37      H        0.82680    0.34870    0.07930    1.000
    C38      C        0.89231    0.25752    0.99719    1.000
    H38      H        0.89920    0.23910    0.99970    1.000
    C39      C        0.85536    0.24666    0.93355    1.000
    H39      H        0.83700    0.24970    0.94020    1.000
    C40      C        0.78190    0.30521    0.11991    1.000
    H40      H        0.77390    0.29630    0.10420    1.000
    N60      N        0.88144    0.26815    0.97271    1.000
    Cu11     Cu       0.87331    0.83720    0.52951    1.000
    Cu12     Cu       0.89996    0.77457    0.55795    1.000
    N61      N        0.89154    0.77719    0.51647    1.000
    N62      N        0.87914    0.80120    0.50452    1.000
    N63      N        0.85658    0.82193    0.56541    1.000
    N64      N        0.86409    0.79486    0.57553    1.000
    N65      N        0.89161    0.73323    0.40799    1.000
    N66      N        0.86205    0.73427    0.40967    1.000
    C41      C        0.90180    0.74564    0.43064    1.000
    H41      H        0.92100    0.74810    0.43480    1.000
    N67      N        0.87960    0.75431    0.44704    1.000
    C42      C        0.87321    0.79550    0.47806    1.000
    H42      H        0.86480    0.80790    0.46510    1.000
    N68      N        0.76847    0.81178    0.64324    1.000
    N69      N        0.80954    0.81348    0.62232    1.000
    N70      N        0.78825    0.82428    0.66165    1.000
    N71      N        0.82989    0.81123    0.60141    1.000
    C43      C        0.84811    0.78908    0.59725    1.000
    H43      H        0.84890    0.77260    0.60820    1.000
    C44      C        0.81267    0.82490    0.64864    1.000
    H44      H        0.82950    0.83200    0.65620    1.000
    C45      C        0.83595    0.83128    0.58133    1.000
    H45      H        0.82680    0.84870    0.57930    1.000
    C46      C        0.89231    0.75752    0.49719    1.000
    H46      H        0.89920    0.73910    0.49970    1.000
    C47      C        0.85536    0.74666    0.43355    1.000
    H47      H        0.83700    0.74970    0.44020    1.000
    C48      C        0.78190    0.80521    0.61991    1.000
    H48      H        0.77390    0.79630    0.60420    1.000
    N72      N        0.88144    0.76815    0.47271    1.000
    Cu13     Cu       0.37331    0.33720    0.52951    1.000
    Cu14     Cu       0.39996    0.27457    0.55795    1.000
    N73      N        0.39154    0.27719    0.51647    1.000
    N74      N        0.37914    0.30120    0.50452    1.000
    N75      N        0.35658    0.32193    0.56541    1.000
    N76      N        0.36409    0.29486    0.57553    1.000
    N77      N        0.39161    0.23323    0.40799    1.000
    N78      N        0.36205    0.23427    0.40967    1.000
    C49      C        0.40180    0.24564    0.43064    1.000
    H49      H        0.42100    0.24810    0.43480    1.000
    N79      N        0.37960    0.25431    0.44704    1.000
    C50      C        0.37321    0.29550    0.47806    1.000
    H50      H        0.36480    0.30790    0.46510    1.000
    N80      N        0.26847    0.31178    0.64324    1.000
    N81      N        0.30954    0.31348    0.62232    1.000
    N82      N        0.28825    0.32428    0.66165    1.000
    N83      N        0.32989    0.31123    0.60141    1.000
    C51      C        0.34811    0.28908    0.59725    1.000
    H51      H        0.34890    0.27260    0.60820    1.000
    C52      C        0.31267    0.32490    0.64864    1.000
    H52      H        0.32950    0.33200    0.65620    1.000
    C53      C        0.33595    0.33128    0.58133    1.000
    H53      H        0.32680    0.34870    0.57930    1.000
    C54      C        0.39231    0.25752    0.49719    1.000
    H54      H        0.39920    0.23910    0.49970    1.000
    C55      C        0.35536    0.24666    0.43355    1.000
    H55      H        0.33700    0.24970    0.44020    1.000
    C56      C        0.28190    0.30521    0.61991    1.000
    H56      H        0.27390    0.29630    0.60420    1.000
    N84      N        0.38144    0.26815    0.47271    1.000
    Cu15     Cu       0.37331    0.83720    0.02951    1.000
    Cu16     Cu       0.39996    0.77457    0.05795    1.000
    N85      N        0.39154    0.77719    0.01647    1.000
    N86      N        0.37914    0.80120    0.00452    1.000
    N87      N        0.35658    0.82193    0.06541    1.000
    N88      N        0.36409    0.79486    0.07553    1.000
    N89      N        0.39161    0.73323    0.90799    1.000
    N90      N        0.36205    0.73427    0.90967    1.000
    C57      C        0.40180    0.74564    0.93064    1.000
    H57      H        0.42100    0.74810    0.93480    1.000
    N91      N        0.37960    0.75431    0.94704    1.000
    C58      C        0.37321    0.79550    0.97806    1.000
    H58      H        0.36480    0.80790    0.96510    1.000
    N92      N        0.26847    0.81178    0.14324    1.000
    N93      N        0.30954    0.81348    0.12232    1.000
    N94      N        0.28825    0.82428    0.16165    1.000
    N95      N        0.32989    0.81123    0.10141    1.000
    C59      C        0.34811    0.78908    0.09725    1.000
    H59      H        0.34890    0.77260    0.10820    1.000
    C60      C        0.31267    0.82490    0.14864    1.000
    H60      H        0.32950    0.83200    0.15620    1.000
    C61      C        0.33595    0.83128    0.08133    1.000
    H61      H        0.32680    0.84870    0.07930    1.000
    C62      C        0.39231    0.75752    0.99719    1.000
    H62      H        0.39920    0.73910    0.99970    1.000
    C63      C        0.35536    0.74666    0.93355    1.000
    H63      H        0.33700    0.74970    0.94020    1.000
    C64      C        0.28190    0.80521    0.11991    1.000
    H64      H        0.27390    0.79630    0.10420    1.000
    N96      N        0.38144    0.76815    0.97271    1.000
    Cu17     Cu       0.37331    0.91280    0.72050    1.000
    Cu18     Cu       0.39996    0.97543    0.69205    1.000
    N97      N        0.39154    0.97281    0.73353    1.000
    N98      N        0.37914    0.94880    0.74548    1.000
    N99      N        0.35658    0.92807    0.68459    1.000
    N100     N        0.36409    0.95514    0.67447    1.000
    N101     N        0.39161    0.01677    0.84201    1.000
    N102     N        0.36205    0.01573    0.84033    1.000
    C65      C        0.40180    0.00436    0.81936    1.000
    H65      H        0.42100    0.00190    0.81520    1.000
    N103     N        0.37960    0.99569    0.80296    1.000
    C66      C        0.37321    0.95450    0.77194    1.000
    H66      H        0.36480    0.94210    0.78490    1.000
    N104     N        0.26847    0.93822    0.60676    1.000
    N105     N        0.30954    0.93652    0.62768    1.000
    N106     N        0.28825    0.92572    0.58835    1.000
    N107     N        0.32989    0.93877    0.64859    1.000
    C67      C        0.34811    0.96092    0.65275    1.000
    H67      H        0.34890    0.97740    0.64180    1.000
    C68      C        0.31267    0.92510    0.60136    1.000
    H68      H        0.32950    0.91800    0.59380    1.000
    C69      C        0.33595    0.91872    0.66867    1.000
    H69      H        0.32680    0.90130    0.67070    1.000
    C70      C        0.39231    0.99248    0.75281    1.000
    H70      H        0.39920    0.01090    0.75030    1.000
    C71      C        0.35536    0.00334    0.81645    1.000
    H71      H        0.33700    0.00030    0.80980    1.000
    C72      C        0.28190    0.94479    0.63009    1.000
    H72      H        0.27390    0.95370    0.64580    1.000
    N108     N        0.38144    0.98185    0.77729    1.000
    Cu19     Cu       0.37331    0.41280    0.22050    1.000
    Cu20     Cu       0.39996    0.47543    0.19205    1.000
    N109     N        0.39154    0.47281    0.23353    1.000
    N110     N        0.37914    0.44880    0.24548    1.000
    N111     N        0.35658    0.42807    0.18459    1.000
    N112     N        0.36409    0.45514    0.17447    1.000
    N113     N        0.39161    0.51677    0.34201    1.000
    N114     N        0.36205    0.51573    0.34033    1.000
    C73      C        0.40180    0.50436    0.31936    1.000
    H73      H        0.42100    0.50190    0.31520    1.000
    N115     N        0.37960    0.49569    0.30296    1.000
    C74      C        0.37321    0.45450    0.27194    1.000
    H74      H        0.36480    0.44210    0.28490    1.000
    N116     N        0.26847    0.43822    0.10676    1.000
    N117     N        0.30954    0.43652    0.12768    1.000
    N118     N        0.28825    0.42572    0.08835    1.000
    N119     N        0.32989    0.43877    0.14859    1.000
    C75      C        0.34811    0.46092    0.15275    1.000
    H75      H        0.34890    0.47740    0.14180    1.000
    C76      C        0.31267    0.42510    0.10136    1.000
    H76      H        0.32950    0.41800    0.09380    1.000
    C77      C        0.33595    0.41872    0.16867    1.000
    H77      H        0.32680    0.40130    0.17070    1.000
    C78      C        0.39231    0.49248    0.25281    1.000
    H78      H        0.39920    0.51090    0.25030    1.000
    C79      C        0.35536    0.50334    0.31645    1.000
    H79      H        0.33700    0.50030    0.30980    1.000
    C80      C        0.28190    0.44479    0.13009    1.000
    H80      H        0.27390    0.45370    0.14580    1.000
    N120     N        0.38144    0.48185    0.27729    1.000
    Cu21     Cu       0.87331    0.91280    0.22050    1.000
    Cu22     Cu       0.89996    0.97543    0.19205    1.000
    N121     N        0.89154    0.97281    0.23353    1.000
    N122     N        0.87914    0.94880    0.24548    1.000
    N123     N        0.85658    0.92807    0.18459    1.000
    N124     N        0.86409    0.95514    0.17447    1.000
    N125     N        0.89161    0.01677    0.34201    1.000
    N126     N        0.86205    0.01573    0.34033    1.000
    C81      C        0.90180    0.00436    0.31936    1.000
    H81      H        0.92100    0.00190    0.31520    1.000
    N127     N        0.87960    0.99569    0.30296    1.000
    C82      C        0.87321    0.95450    0.27194    1.000
    H82      H        0.86480    0.94210    0.28490    1.000
    N128     N        0.76847    0.93822    0.10676    1.000
    N129     N        0.80954    0.93652    0.12768    1.000
    N130     N        0.78825    0.92572    0.08835    1.000
    N131     N        0.82989    0.93877    0.14859    1.000
    C83      C        0.84811    0.96092    0.15275    1.000
    H83      H        0.84890    0.97740    0.14180    1.000
    C84      C        0.81267    0.92510    0.10136    1.000
    H84      H        0.82950    0.91800    0.09380    1.000
    C85      C        0.83595    0.91872    0.16867    1.000
    H85      H        0.82680    0.90130    0.17070    1.000
    C86      C        0.89231    0.99248    0.25281    1.000
    H86      H        0.89920    0.01090    0.25030    1.000
    C87      C        0.85536    0.00334    0.31645    1.000
    H87      H        0.83700    0.00030    0.30980    1.000
    C88      C        0.78190    0.94479    0.13009    1.000
    H88      H        0.77390    0.95370    0.14580    1.000
    N132     N        0.88144    0.98185    0.27729    1.000
    Cu23     Cu       0.87331    0.41280    0.72050    1.000
    Cu24     Cu       0.89996    0.47543    0.69205    1.000
    N133     N        0.89154    0.47281    0.73353    1.000
    N134     N        0.87914    0.44880    0.74548    1.000
    N135     N        0.85658    0.42807    0.68459    1.000
    N136     N        0.86409    0.45514    0.67447    1.000
    N137     N        0.89161    0.51677    0.84201    1.000
    N138     N        0.86205    0.51573    0.84033    1.000
    C89      C        0.90180    0.50436    0.81936    1.000
    H89      H        0.92100    0.50190    0.81520    1.000
    N139     N        0.87960    0.49569    0.80296    1.000
    C90      C        0.87321    0.45450    0.77194    1.000
    H90      H        0.86480    0.44210    0.78490    1.000
    N140     N        0.76847    0.43822    0.60676    1.000
    N141     N        0.80954    0.43652    0.62768    1.000
    N142     N        0.78825    0.42572    0.58835    1.000
    N143     N        0.82989    0.43877    0.64859    1.000
    C91      C        0.84811    0.46092    0.65275    1.000
    H91      H        0.84890    0.47740    0.64180    1.000
    C92      C        0.81267    0.42510    0.60136    1.000
    H92      H        0.82950    0.41800    0.59380    1.000
    C93      C        0.83595    0.41872    0.66867    1.000
    H93      H        0.82680    0.40130    0.67070    1.000
    C94      C        0.89231    0.49248    0.75281    1.000
    H94      H        0.89920    0.51090    0.75030    1.000
    C95      C        0.85536    0.50334    0.81645    1.000
    H95      H        0.83700    0.50030    0.80980    1.000
    C96      C        0.78190    0.44479    0.63009    1.000
    H96      H        0.77390    0.45370    0.64580    1.000
    N144     N        0.88144    0.48185    0.77729    1.000
    Cu25     Cu       0.87669    0.83720    0.22050    1.000
    Cu26     Cu       0.85004    0.77457    0.19205    1.000
    N145     N        0.85846    0.77719    0.23353    1.000
    N146     N        0.87086    0.80120    0.24548    1.000
    N147     N        0.89342    0.82193    0.18459    1.000
    N148     N        0.88591    0.79486    0.17447    1.000
    N149     N        0.85839    0.73323    0.34201    1.000
    N150     N        0.88795    0.73427    0.34033    1.000
    C97      C        0.84820    0.74564    0.31936    1.000
    H97      H        0.82900    0.74810    0.31520    1.000
    N151     N        0.87040    0.75431    0.30296    1.000
    C98      C        0.87679    0.79550    0.27194    1.000
    H98      H        0.88520    0.80790    0.28490    1.000
    N152     N        0.98153    0.81178    0.10676    1.000
    N153     N        0.94046    0.81348    0.12768    1.000
    N154     N        0.96175    0.82428    0.08835    1.000
    N155     N        0.92011    0.81123    0.14859    1.000
    C99      C        0.90189    0.78908    0.15275    1.000
    H99      H        0.90110    0.77260    0.14180    1.000
    C100     C        0.93733    0.82490    0.10136    1.000
    H100     H        0.92050    0.83200    0.09380    1.000
    C101     C        0.91405    0.83128    0.16867    1.000
    H101     H        0.92320    0.84870    0.17070    1.000
    C102     C        0.85769    0.75752    0.25281    1.000
    H102     H        0.85080    0.73910    0.25030    1.000
    C103     C        0.89464    0.74666    0.31645    1.000
    H103     H        0.91300    0.74970    0.30980    1.000
    C104     C        0.96810    0.80521    0.13009    1.000
    H104     H        0.97610    0.79630    0.14580    1.000
    N156     N        0.86856    0.76815    0.27729    1.000
    Cu27     Cu       0.87669    0.33720    0.72050    1.000
    Cu28     Cu       0.85004    0.27457    0.69205    1.000
    N157     N        0.85846    0.27719    0.73353    1.000
    N158     N        0.87086    0.30120    0.74548    1.000
    N159     N        0.89342    0.32193    0.68459    1.000
    N160     N        0.88591    0.29486    0.67447    1.000
    N161     N        0.85839    0.23323    0.84201    1.000
    N162     N        0.88795    0.23427    0.84033    1.000
    C105     C        0.84820    0.24564    0.81936    1.000
    H105     H        0.82900    0.24810    0.81520    1.000
    N163     N        0.87040    0.25431    0.80296    1.000
    C106     C        0.87679    0.29550    0.77194    1.000
    H106     H        0.88520    0.30790    0.78490    1.000
    N164     N        0.98153    0.31178    0.60676    1.000
    N165     N        0.94046    0.31348    0.62768    1.000
    N166     N        0.96175    0.32428    0.58835    1.000
    N167     N        0.92011    0.31123    0.64859    1.000
    C107     C        0.90189    0.28908    0.65275    1.000
    H107     H        0.90110    0.27260    0.64180    1.000
    C108     C        0.93733    0.32490    0.60136    1.000
    H108     H        0.92050    0.33200    0.59380    1.000
    C109     C        0.91405    0.33128    0.66867    1.000
    H109     H        0.92320    0.34870    0.67070    1.000
    C110     C        0.85769    0.25752    0.75281    1.000
    H110     H        0.85080    0.23910    0.75030    1.000
    C111     C        0.89464    0.24666    0.81645    1.000
    H111     H        0.91300    0.24970    0.80980    1.000
    C112     C        0.96810    0.30521    0.63009    1.000
    H112     H        0.97610    0.29630    0.64580    1.000
    N168     N        0.86856    0.26815    0.77729    1.000
    Cu29     Cu       0.37669    0.83720    0.72050    1.000
    Cu30     Cu       0.35004    0.77457    0.69205    1.000
    N169     N        0.35846    0.77719    0.73353    1.000
    N170     N        0.37086    0.80120    0.74548    1.000
    N171     N        0.39342    0.82193    0.68459    1.000
    N172     N        0.38591    0.79486    0.67447    1.000
    N173     N        0.35839    0.73323    0.84201    1.000
    N174     N        0.38795    0.73427    0.84033    1.000
    C113     C        0.34820    0.74564    0.81936    1.000
    H113     H        0.32900    0.74810    0.81520    1.000
    N175     N        0.37040    0.75431    0.80296    1.000
    C114     C        0.37679    0.79550    0.77194    1.000
    H114     H        0.38520    0.80790    0.78490    1.000
    N176     N        0.48153    0.81178    0.60676    1.000
    N177     N        0.44046    0.81348    0.62768    1.000
    N178     N        0.46175    0.82428    0.58835    1.000
    N179     N        0.42011    0.81123    0.64859    1.000
    C115     C        0.40189    0.78908    0.65275    1.000
    H115     H        0.40110    0.77260    0.64180    1.000
    C116     C        0.43733    0.82490    0.60136    1.000
    H116     H        0.42050    0.83200    0.59380    1.000
    C117     C        0.41405    0.83128    0.66867    1.000
    H117     H        0.42320    0.84870    0.67070    1.000
    C118     C        0.35769    0.75752    0.75281    1.000
    H118     H        0.35080    0.73910    0.75030    1.000
    C119     C        0.39464    0.74666    0.81645    1.000
    H119     H        0.41300    0.74970    0.80980    1.000
    C120     C        0.46810    0.80521    0.63009    1.000
    H120     H        0.47610    0.79630    0.64580    1.000
    N180     N        0.36856    0.76815    0.77729    1.000
    Cu31     Cu       0.37669    0.33720    0.22050    1.000
    Cu32     Cu       0.35004    0.27457    0.19205    1.000
    N181     N        0.35846    0.27719    0.23353    1.000
    N182     N        0.37086    0.30120    0.24548    1.000
    N183     N        0.39342    0.32193    0.18459    1.000
    N184     N        0.38591    0.29486    0.17447    1.000
    N185     N        0.35839    0.23323    0.34201    1.000
    N186     N        0.38795    0.23427    0.34033    1.000
    C121     C        0.34820    0.24564    0.31936    1.000
    H121     H        0.32900    0.24810    0.31520    1.000
    N187     N        0.37040    0.25431    0.30296    1.000
    C122     C        0.37679    0.29550    0.27194    1.000
    H122     H        0.38520    0.30790    0.28490    1.000
    N188     N        0.48153    0.31178    0.10676    1.000
    N189     N        0.44046    0.31348    0.12768    1.000
    N190     N        0.46175    0.32428    0.08835    1.000
    N191     N        0.42011    0.31123    0.14859    1.000
    C123     C        0.40189    0.28908    0.15275    1.000
    H123     H        0.40110    0.27260    0.14180    1.000
    C124     C        0.43733    0.32490    0.10136    1.000
    H124     H        0.42050    0.33200    0.09380    1.000
    C125     C        0.41405    0.33128    0.16867    1.000
    H125     H        0.42320    0.34870    0.17070    1.000
    C126     C        0.35769    0.25752    0.25281    1.000
    H126     H        0.35080    0.23910    0.25030    1.000
    C127     C        0.39464    0.24666    0.31645    1.000
    H127     H        0.41300    0.24970    0.30980    1.000
    C128     C        0.46810    0.30521    0.13009    1.000
    H128     H        0.47610    0.29630    0.14580    1.000
    N192     N        0.36856    0.26815    0.27729    1.000
    Cu33     Cu       0.52951    0.37669    0.41280    1.000
    Cu34     Cu       0.55795    0.35004    0.47543    1.000
    N193     N        0.51647    0.35846    0.47281    1.000
    N194     N        0.50452    0.37086    0.44880    1.000
    N195     N        0.56541    0.39342    0.42807    1.000
    N196     N        0.57553    0.38591    0.45514    1.000
    N197     N        0.40799    0.35839    0.51677    1.000
    N198     N        0.40967    0.38795    0.51573    1.000
    C129     C        0.43064    0.34820    0.50436    1.000
    H129     H        0.43480    0.32900    0.50190    1.000
    N199     N        0.44704    0.37040    0.49569    1.000
    C130     C        0.47806    0.37679    0.45450    1.000
    H130     H        0.46510    0.38520    0.44210    1.000
    N200     N        0.64324    0.48153    0.43822    1.000
    N201     N        0.62232    0.44046    0.43652    1.000
    N202     N        0.66165    0.46175    0.42572    1.000
    N203     N        0.60141    0.42011    0.43877    1.000
    C131     C        0.59725    0.40189    0.46092    1.000
    H131     H        0.60820    0.40110    0.47740    1.000
    C132     C        0.64864    0.43733    0.42510    1.000
    H132     H        0.65620    0.42050    0.41800    1.000
    C133     C        0.58133    0.41405    0.41872    1.000
    H133     H        0.57930    0.42320    0.40130    1.000
    C134     C        0.49719    0.35769    0.49248    1.000
    H134     H        0.49970    0.35080    0.51090    1.000
    C135     C        0.43355    0.39464    0.50334    1.000
    H135     H        0.44020    0.41300    0.50030    1.000
    C136     C        0.61991    0.46810    0.44479    1.000
    H136     H        0.60420    0.47610    0.45370    1.000
    N204     N        0.47271    0.36856    0.48185    1.000
    Cu35     Cu       0.52951    0.87669    0.91280    1.000
    Cu36     Cu       0.55795    0.85004    0.97543    1.000
    N205     N        0.51647    0.85846    0.97281    1.000
    N206     N        0.50452    0.87086    0.94880    1.000
    N207     N        0.56541    0.89342    0.92807    1.000
    N208     N        0.57553    0.88591    0.95514    1.000
    N209     N        0.40799    0.85839    0.01677    1.000
    N210     N        0.40967    0.88795    0.01573    1.000
    C137     C        0.43064    0.84820    0.00436    1.000
    H137     H        0.43480    0.82900    0.00190    1.000
    N211     N        0.44704    0.87040    0.99569    1.000
    C138     C        0.47806    0.87679    0.95450    1.000
    H138     H        0.46510    0.88520    0.94210    1.000
    N212     N        0.64324    0.98153    0.93822    1.000
    N213     N        0.62232    0.94046    0.93652    1.000
    N214     N        0.66165    0.96175    0.92572    1.000
    N215     N        0.60141    0.92011    0.93877    1.000
    C139     C        0.59725    0.90189    0.96092    1.000
    H139     H        0.60820    0.90110    0.97740    1.000
    C140     C        0.64864    0.93733    0.92510    1.000
    H140     H        0.65620    0.92050    0.91800    1.000
    C141     C        0.58133    0.91405    0.91872    1.000
    H141     H        0.57930    0.92320    0.90130    1.000
    C142     C        0.49719    0.85769    0.99248    1.000
    H142     H        0.49970    0.85080    0.01090    1.000
    C143     C        0.43355    0.89464    0.00334    1.000
    H143     H        0.44020    0.91300    0.00030    1.000
    C144     C        0.61991    0.96810    0.94479    1.000
    H144     H        0.60420    0.97610    0.95370    1.000
    N216     N        0.47271    0.86856    0.98185    1.000
    Cu37     Cu       0.02951    0.37669    0.91280    1.000
    Cu38     Cu       0.05795    0.35004    0.97543    1.000
    N217     N        0.01647    0.35846    0.97281    1.000
    N218     N        0.00452    0.37086    0.94880    1.000
    N219     N        0.06541    0.39342    0.92807    1.000
    N220     N        0.07553    0.38591    0.95514    1.000
    N221     N        0.90799    0.35839    0.01677    1.000
    N222     N        0.90967    0.38795    0.01573    1.000
    C145     C        0.93064    0.34820    0.00436    1.000
    H145     H        0.93480    0.32900    0.00190    1.000
    N223     N        0.94704    0.37040    0.99569    1.000
    C146     C        0.97806    0.37679    0.95450    1.000
    H146     H        0.96510    0.38520    0.94210    1.000
    N224     N        0.14324    0.48153    0.93822    1.000
    N225     N        0.12232    0.44046    0.93652    1.000
    N226     N        0.16165    0.46175    0.92572    1.000
    N227     N        0.10141    0.42011    0.93877    1.000
    C147     C        0.09725    0.40189    0.96092    1.000
    H147     H        0.10820    0.40110    0.97740    1.000
    C148     C        0.14864    0.43733    0.92510    1.000
    H148     H        0.15620    0.42050    0.91800    1.000
    C149     C        0.08133    0.41405    0.91872    1.000
    H149     H        0.07930    0.42320    0.90130    1.000
    C150     C        0.99719    0.35769    0.99248    1.000
    H150     H        0.99970    0.35080    0.01090    1.000
    C151     C        0.93355    0.39464    0.00334    1.000
    H151     H        0.94020    0.41300    0.00030    1.000
    C152     C        0.11991    0.46810    0.94479    1.000
    H152     H        0.10420    0.47610    0.95370    1.000
    N228     N        0.97271    0.36856    0.98185    1.000
    Cu39     Cu       0.02951    0.87669    0.41280    1.000
    Cu40     Cu       0.05795    0.85004    0.47543    1.000
    N229     N        0.01647    0.85846    0.47281    1.000
    N230     N        0.00452    0.87086    0.44880    1.000
    N231     N        0.06541    0.89342    0.42807    1.000
    N232     N        0.07553    0.88591    0.45514    1.000
    N233     N        0.90799    0.85839    0.51677    1.000
    N234     N        0.90967    0.88795    0.51573    1.000
    C153     C        0.93064    0.84820    0.50436    1.000
    H153     H        0.93480    0.82900    0.50190    1.000
    N235     N        0.94704    0.87040    0.49569    1.000
    C154     C        0.97806    0.87679    0.45450    1.000
    H154     H        0.96510    0.88520    0.44210    1.000
    N236     N        0.14324    0.98153    0.43822    1.000
    N237     N        0.12232    0.94046    0.43652    1.000
    N238     N        0.16165    0.96175    0.42572    1.000
    N239     N        0.10141    0.92011    0.43877    1.000
    C155     C        0.09725    0.90189    0.46092    1.000
    H155     H        0.10820    0.90110    0.47740    1.000
    C156     C        0.14864    0.93733    0.42510    1.000
    H156     H        0.15620    0.92050    0.41800    1.000
    C157     C        0.08133    0.91405    0.41872    1.000
    H157     H        0.07930    0.92320    0.40130    1.000
    C158     C        0.99719    0.85769    0.49248    1.000
    H158     H        0.99970    0.85080    0.51090    1.000
    C159     C        0.93355    0.89464    0.50334    1.000
    H159     H        0.94020    0.91300    0.50030    1.000
    C160     C        0.11991    0.96810    0.44479    1.000
    H160     H        0.10420    0.97610    0.45370    1.000
    N240     N        0.97271    0.86856    0.48185    1.000
    Cu41     Cu       0.02951    0.87331    0.33720    1.000
    Cu42     Cu       0.05795    0.89996    0.27457    1.000
    N241     N        0.01647    0.89154    0.27719    1.000
    N242     N        0.00452    0.87914    0.30120    1.000
    N243     N        0.06541    0.85658    0.32193    1.000
    N244     N        0.07553    0.86409    0.29486    1.000
    N245     N        0.90799    0.89161    0.23323    1.000
    N246     N        0.90967    0.86205    0.23427    1.000
    C161     C        0.93064    0.90180    0.24564    1.000
    H161     H        0.93480    0.92100    0.24810    1.000
    N247     N        0.94704    0.87960    0.25431    1.000
    C162     C        0.97806    0.87321    0.29550    1.000
    H162     H        0.96510    0.86480    0.30790    1.000
    N248     N        0.14324    0.76847    0.31178    1.000
    N249     N        0.12232    0.80954    0.31348    1.000
    N250     N        0.16165    0.78825    0.32428    1.000
    N251     N        0.10141    0.82989    0.31123    1.000
    C163     C        0.09725    0.84811    0.28908    1.000
    H163     H        0.10820    0.84890    0.27260    1.000
    C164     C        0.14864    0.81267    0.32490    1.000
    H164     H        0.15620    0.82950    0.33200    1.000
    C165     C        0.08133    0.83595    0.33128    1.000
    H165     H        0.07930    0.82680    0.34870    1.000
    C166     C        0.99719    0.89231    0.25752    1.000
    H166     H        0.99970    0.89920    0.23910    1.000
    C167     C        0.93355    0.85536    0.24666    1.000
    H167     H        0.94020    0.83700    0.24970    1.000
    C168     C        0.11991    0.78190    0.30521    1.000
    H168     H        0.10420    0.77390    0.29630    1.000
    N252     N        0.97271    0.88144    0.26815    1.000
    Cu43     Cu       0.02951    0.37331    0.83720    1.000
    Cu44     Cu       0.05795    0.39996    0.77457    1.000
    N253     N        0.01647    0.39154    0.77719    1.000
    N254     N        0.00452    0.37914    0.80120    1.000
    N255     N        0.06541    0.35658    0.82193    1.000
    N256     N        0.07553    0.36409    0.79486    1.000
    N257     N        0.90799    0.39161    0.73323    1.000
    N258     N        0.90967    0.36205    0.73427    1.000
    C169     C        0.93064    0.40180    0.74564    1.000
    H169     H        0.93480    0.42100    0.74810    1.000
    N259     N        0.94704    0.37960    0.75431    1.000
    C170     C        0.97806    0.37321    0.79550    1.000
    H170     H        0.96510    0.36480    0.80790    1.000
    N260     N        0.14324    0.26847    0.81178    1.000
    N261     N        0.12232    0.30954    0.81348    1.000
    N262     N        0.16165    0.28825    0.82428    1.000
    N263     N        0.10141    0.32989    0.81123    1.000
    C171     C        0.09725    0.34811    0.78908    1.000
    H171     H        0.10820    0.34890    0.77260    1.000
    C172     C        0.14864    0.31267    0.82490    1.000
    H172     H        0.15620    0.32950    0.83200    1.000
    C173     C        0.08133    0.33595    0.83128    1.000
    H173     H        0.07930    0.32680    0.84870    1.000
    C174     C        0.99719    0.39231    0.75752    1.000
    H174     H        0.99970    0.39920    0.73910    1.000
    C175     C        0.93355    0.35536    0.74666    1.000
    H175     H        0.94020    0.33700    0.74970    1.000
    C176     C        0.11991    0.28190    0.80521    1.000
    H176     H        0.10420    0.27390    0.79630    1.000
    N264     N        0.97271    0.38144    0.76815    1.000
    Cu45     Cu       0.52951    0.87331    0.83720    1.000
    Cu46     Cu       0.55795    0.89996    0.77457    1.000
    N265     N        0.51647    0.89154    0.77719    1.000
    N266     N        0.50452    0.87914    0.80120    1.000
    N267     N        0.56541    0.85658    0.82193    1.000
    N268     N        0.57553    0.86409    0.79486    1.000
    N269     N        0.40799    0.89161    0.73323    1.000
    N270     N        0.40967    0.86205    0.73427    1.000
    C177     C        0.43064    0.90180    0.74564    1.000
    H177     H        0.43480    0.92100    0.74810    1.000
    N271     N        0.44704    0.87960    0.75431    1.000
    C178     C        0.47806    0.87321    0.79550    1.000
    H178     H        0.46510    0.86480    0.80790    1.000
    N272     N        0.64324    0.76847    0.81178    1.000
    N273     N        0.62232    0.80954    0.81348    1.000
    N274     N        0.66165    0.78825    0.82428    1.000
    N275     N        0.60141    0.82989    0.81123    1.000
    C179     C        0.59725    0.84811    0.78908    1.000
    H179     H        0.60820    0.84890    0.77260    1.000
    C180     C        0.64864    0.81267    0.82490    1.000
    H180     H        0.65620    0.82950    0.83200    1.000
    C181     C        0.58133    0.83595    0.83128    1.000
    H181     H        0.57930    0.82680    0.84870    1.000
    C182     C        0.49719    0.89231    0.75752    1.000
    H182     H        0.49970    0.89920    0.73910    1.000
    C183     C        0.43355    0.85536    0.74666    1.000
    H183     H        0.44020    0.83700    0.74970    1.000
    C184     C        0.61991    0.78190    0.80521    1.000
    H184     H        0.60420    0.77390    0.79630    1.000
    N276     N        0.47271    0.88144    0.76815    1.000
    Cu47     Cu       0.52951    0.37331    0.33720    1.000
    Cu48     Cu       0.55795    0.39996    0.27457    1.000
    N277     N        0.51647    0.39154    0.27719    1.000
    N278     N        0.50452    0.37914    0.30120    1.000
    N279     N        0.56541    0.35658    0.32193    1.000
    N280     N        0.57553    0.36409    0.29486    1.000
    N281     N        0.40799    0.39161    0.23323    1.000
    N282     N        0.40967    0.36205    0.23427    1.000
    C185     C        0.43064    0.40180    0.24564    1.000
    H185     H        0.43480    0.42100    0.24810    1.000
    N283     N        0.44704    0.37960    0.25431    1.000
    C186     C        0.47806    0.37321    0.29550    1.000
    H186     H        0.46510    0.36480    0.30790    1.000
    N284     N        0.64324    0.26847    0.31178    1.000
    N285     N        0.62232    0.30954    0.31348    1.000
    N286     N        0.66165    0.28825    0.32428    1.000
    N287     N        0.60141    0.32989    0.31123    1.000
    C187     C        0.59725    0.34811    0.28908    1.000
    H187     H        0.60820    0.34890    0.27260    1.000
    C188     C        0.64864    0.31267    0.32490    1.000
    H188     H        0.65620    0.32950    0.33200    1.000
    C189     C        0.58133    0.33595    0.33128    1.000
    H189     H        0.57930    0.32680    0.34870    1.000
    C190     C        0.49719    0.39231    0.25752    1.000
    H190     H        0.49970    0.39920    0.23910    1.000
    C191     C        0.43355    0.35536    0.24666    1.000
    H191     H        0.44020    0.33700    0.24970    1.000
    C192     C        0.61991    0.28190    0.30521    1.000
    H192     H        0.60420    0.27390    0.29630    1.000
    N288     N        0.47271    0.38144    0.26815    1.000
    Cu49     Cu       0.72050    0.37331    0.91280    1.000
    Cu50     Cu       0.69205    0.39996    0.97543    1.000
    N289     N        0.73353    0.39154    0.97281    1.000
    N290     N        0.74548    0.37914    0.94880    1.000
    N291     N        0.68459    0.35658    0.92807    1.000
    N292     N        0.67447    0.36409    0.95514    1.000
    N293     N        0.84201    0.39161    0.01677    1.000
    N294     N        0.84033    0.36205    0.01573    1.000
    C193     C        0.81936    0.40180    0.00436    1.000
    H193     H        0.81520    0.42100    0.00190    1.000
    N295     N        0.80296    0.37960    0.99569    1.000
    C194     C        0.77194    0.37321    0.95450    1.000
    H194     H        0.78490    0.36480    0.94210    1.000
    N296     N        0.60676    0.26847    0.93822    1.000
    N297     N        0.62768    0.30954    0.93652    1.000
    N298     N        0.58835    0.28825    0.92572    1.000
    N299     N        0.64859    0.32989    0.93877    1.000
    C195     C        0.65275    0.34811    0.96092    1.000
    H195     H        0.64180    0.34890    0.97740    1.000
    C196     C        0.60136    0.31267    0.92510    1.000
    H196     H        0.59380    0.32950    0.91800    1.000
    C197     C        0.66867    0.33595    0.91872    1.000
    H197     H        0.67070    0.32680    0.90130    1.000
    C198     C        0.75281    0.39231    0.99248    1.000
    H198     H        0.75030    0.39920    0.01090    1.000
    C199     C        0.81645    0.35536    0.00334    1.000
    H199     H        0.80980    0.33700    0.00030    1.000
    C200     C        0.63009    0.28190    0.94479    1.000
    H200     H        0.64580    0.27390    0.95370    1.000
    N300     N        0.77729    0.38144    0.98185    1.000
    Cu51     Cu       0.72050    0.87331    0.41280    1.000
    Cu52     Cu       0.69205    0.89996    0.47543    1.000
    N301     N        0.73353    0.89154    0.47281    1.000
    N302     N        0.74548    0.87914    0.44880    1.000
    N303     N        0.68459    0.85658    0.42807    1.000
    N304     N        0.67447    0.86409    0.45514    1.000
    N305     N        0.84201    0.89161    0.51677    1.000
    N306     N        0.84033    0.86205    0.51573    1.000
    C201     C        0.81936    0.90180    0.50436    1.000
    H201     H        0.81520    0.92100    0.50190    1.000
    N307     N        0.80296    0.87960    0.49569    1.000
    C202     C        0.77194    0.87321    0.45450    1.000
    H202     H        0.78490    0.86480    0.44210    1.000
    N308     N        0.60676    0.76847    0.43822    1.000
    N309     N        0.62768    0.80954    0.43652    1.000
    N310     N        0.58835    0.78825    0.42572    1.000
    N311     N        0.64859    0.82989    0.43877    1.000
    C203     C        0.65275    0.84811    0.46092    1.000
    H203     H        0.64180    0.84890    0.47740    1.000
    C204     C        0.60136    0.81267    0.42510    1.000
    H204     H        0.59380    0.82950    0.41800    1.000
    C205     C        0.66867    0.83595    0.41872    1.000
    H205     H        0.67070    0.82680    0.40130    1.000
    C206     C        0.75281    0.89231    0.49248    1.000
    H206     H        0.75030    0.89920    0.51090    1.000
    C207     C        0.81645    0.85536    0.50334    1.000
    H207     H        0.80980    0.83700    0.50030    1.000
    C208     C        0.63009    0.78190    0.44479    1.000
    H208     H        0.64580    0.77390    0.45370    1.000
    N312     N        0.77729    0.88144    0.48185    1.000
    Cu53     Cu       0.22050    0.37331    0.41280    1.000
    Cu54     Cu       0.19205    0.39996    0.47543    1.000
    N313     N        0.23353    0.39154    0.47281    1.000
    N314     N        0.24548    0.37914    0.44880    1.000
    N315     N        0.18459    0.35658    0.42807    1.000
    N316     N        0.17447    0.36409    0.45514    1.000
    N317     N        0.34201    0.39161    0.51677    1.000
    N318     N        0.34033    0.36205    0.51573    1.000
    C209     C        0.31936    0.40180    0.50436    1.000
    H209     H        0.31520    0.42100    0.50190    1.000
    N319     N        0.30296    0.37960    0.49569    1.000
    C210     C        0.27194    0.37321    0.45450    1.000
    H210     H        0.28490    0.36480    0.44210    1.000
    N320     N        0.10676    0.26847    0.43822    1.000
    N321     N        0.12768    0.30954    0.43652    1.000
    N322     N        0.08835    0.28825    0.42572    1.000
    N323     N        0.14859    0.32989    0.43877    1.000
    C211     C        0.15275    0.34811    0.46092    1.000
    H211     H        0.14180    0.34890    0.47740    1.000
    C212     C        0.10136    0.31267    0.42510    1.000
    H212     H        0.09380    0.32950    0.41800    1.000
    C213     C        0.16867    0.33595    0.41872    1.000
    H213     H        0.17070    0.32680    0.40130    1.000
    C214     C        0.25281    0.39231    0.49248    1.000
    H214     H        0.25030    0.39920    0.51090    1.000
    C215     C        0.31645    0.35536    0.50334    1.000
    H215     H        0.30980    0.33700    0.50030    1.000
    C216     C        0.13009    0.28190    0.44479    1.000
    H216     H        0.14580    0.27390    0.45370    1.000
    N324     N        0.27729    0.38144    0.48185    1.000
    Cu55     Cu       0.22050    0.87331    0.91280    1.000
    Cu56     Cu       0.19205    0.89996    0.97543    1.000
    N325     N        0.23353    0.89154    0.97281    1.000
    N326     N        0.24548    0.87914    0.94880    1.000
    N327     N        0.18459    0.85658    0.92807    1.000
    N328     N        0.17447    0.86409    0.95514    1.000
    N329     N        0.34201    0.89161    0.01677    1.000
    N330     N        0.34033    0.86205    0.01573    1.000
    C217     C        0.31936    0.90180    0.00436    1.000
    H217     H        0.31520    0.92100    0.00190    1.000
    N331     N        0.30296    0.87960    0.99569    1.000
    C218     C        0.27194    0.87321    0.95450    1.000
    H218     H        0.28490    0.86480    0.94210    1.000
    N332     N        0.10676    0.76847    0.93822    1.000
    N333     N        0.12768    0.80954    0.93652    1.000
    N334     N        0.08835    0.78825    0.92572    1.000
    N335     N        0.14859    0.82989    0.93877    1.000
    C219     C        0.15275    0.84811    0.96092    1.000
    H219     H        0.14180    0.84890    0.97740    1.000
    C220     C        0.10136    0.81267    0.92510    1.000
    H220     H        0.09380    0.82950    0.91800    1.000
    C221     C        0.16867    0.83595    0.91872    1.000
    H221     H        0.17070    0.82680    0.90130    1.000
    C222     C        0.25281    0.89231    0.99248    1.000
    H222     H        0.25030    0.89920    0.01090    1.000
    C223     C        0.31645    0.85536    0.00334    1.000
    H223     H        0.30980    0.83700    0.00030    1.000
    C224     C        0.13009    0.78190    0.94479    1.000
    H224     H        0.14580    0.77390    0.95370    1.000
    N336     N        0.27729    0.88144    0.98185    1.000
    Cu57     Cu       0.22050    0.87669    0.83720    1.000
    Cu58     Cu       0.19205    0.85004    0.77457    1.000
    N337     N        0.23353    0.85846    0.77719    1.000
    N338     N        0.24548    0.87086    0.80120    1.000
    N339     N        0.18459    0.89342    0.82193    1.000
    N340     N        0.17447    0.88591    0.79486    1.000
    N341     N        0.34201    0.85839    0.73323    1.000
    N342     N        0.34033    0.88795    0.73427    1.000
    C225     C        0.31936    0.84820    0.74564    1.000
    H225     H        0.31520    0.82900    0.74810    1.000
    N343     N        0.30296    0.87040    0.75431    1.000
    C226     C        0.27194    0.87679    0.79550    1.000
    H226     H        0.28490    0.88520    0.80790    1.000
    N344     N        0.10676    0.98153    0.81178    1.000
    N345     N        0.12768    0.94046    0.81348    1.000
    N346     N        0.08835    0.96175    0.82428    1.000
    N347     N        0.14859    0.92011    0.81123    1.000
    C227     C        0.15275    0.90189    0.78908    1.000
    H227     H        0.14180    0.90110    0.77260    1.000
    C228     C        0.10136    0.93733    0.82490    1.000
    H228     H        0.09380    0.92050    0.83200    1.000
    C229     C        0.16867    0.91405    0.83128    1.000
    H229     H        0.17070    0.92320    0.84870    1.000
    C230     C        0.25281    0.85769    0.75752    1.000
    H230     H        0.25030    0.85080    0.73910    1.000
    C231     C        0.31645    0.89464    0.74666    1.000
    H231     H        0.30980    0.91300    0.74970    1.000
    C232     C        0.13009    0.96810    0.80521    1.000
    H232     H        0.14580    0.97610    0.79630    1.000
    N348     N        0.27729    0.86856    0.76815    1.000
    Cu59     Cu       0.22050    0.37669    0.33720    1.000
    Cu60     Cu       0.19205    0.35004    0.27457    1.000
    N349     N        0.23353    0.35846    0.27719    1.000
    N350     N        0.24548    0.37086    0.30120    1.000
    N351     N        0.18459    0.39342    0.32193    1.000
    N352     N        0.17447    0.38591    0.29486    1.000
    N353     N        0.34201    0.35839    0.23323    1.000
    N354     N        0.34033    0.38795    0.23427    1.000
    C233     C        0.31936    0.34820    0.24564    1.000
    H233     H        0.31520    0.32900    0.24810    1.000
    N355     N        0.30296    0.37040    0.25431    1.000
    C234     C        0.27194    0.37679    0.29550    1.000
    H234     H        0.28490    0.38520    0.30790    1.000
    N356     N        0.10676    0.48153    0.31178    1.000
    N357     N        0.12768    0.44046    0.31348    1.000
    N358     N        0.08835    0.46175    0.32428    1.000
    N359     N        0.14859    0.42011    0.31123    1.000
    C235     C        0.15275    0.40189    0.28908    1.000
    H235     H        0.14180    0.40110    0.27260    1.000
    C236     C        0.10136    0.43733    0.32490    1.000
    H236     H        0.09380    0.42050    0.33200    1.000
    C237     C        0.16867    0.41405    0.33128    1.000
    H237     H        0.17070    0.42320    0.34870    1.000
    C238     C        0.25281    0.35769    0.25752    1.000
    H238     H        0.25030    0.35080    0.23910    1.000
    C239     C        0.31645    0.39464    0.24666    1.000
    H239     H        0.30980    0.41300    0.24970    1.000
    C240     C        0.13009    0.46810    0.30521    1.000
    H240     H        0.14580    0.47610    0.29630    1.000
    N360     N        0.27729    0.36856    0.26815    1.000
    Cu61     Cu       0.72050    0.87669    0.33720    1.000
    Cu62     Cu       0.69205    0.85004    0.27457    1.000
    N361     N        0.73353    0.85846    0.27719    1.000
    N362     N        0.74548    0.87086    0.30120    1.000
    N363     N        0.68459    0.89342    0.32193    1.000
    N364     N        0.67447    0.88591    0.29486    1.000
    N365     N        0.84201    0.85839    0.23323    1.000
    N366     N        0.84033    0.88795    0.23427    1.000
    C241     C        0.81936    0.84820    0.24564    1.000
    H241     H        0.81520    0.82900    0.24810    1.000
    N367     N        0.80296    0.87040    0.25431    1.000
    C242     C        0.77194    0.87679    0.29550    1.000
    H242     H        0.78490    0.88520    0.30790    1.000
    N368     N        0.60676    0.98153    0.31178    1.000
    N369     N        0.62768    0.94046    0.31348    1.000
    N370     N        0.58835    0.96175    0.32428    1.000
    N371     N        0.64859    0.92011    0.31123    1.000
    C243     C        0.65275    0.90189    0.28908    1.000
    H243     H        0.64180    0.90110    0.27260    1.000
    C244     C        0.60136    0.93733    0.32490    1.000
    H244     H        0.59380    0.92050    0.33200    1.000
    C245     C        0.66867    0.91405    0.33128    1.000
    H245     H        0.67070    0.92320    0.34870    1.000
    C246     C        0.75281    0.85769    0.25752    1.000
    H246     H        0.75030    0.85080    0.23910    1.000
    C247     C        0.81645    0.89464    0.24666    1.000
    H247     H        0.80980    0.91300    0.24970    1.000
    C248     C        0.63009    0.96810    0.30521    1.000
    H248     H        0.64580    0.97610    0.29630    1.000
    N372     N        0.77729    0.86856    0.26815    1.000
    Cu63     Cu       0.72050    0.37669    0.83720    1.000
    Cu64     Cu       0.69205    0.35004    0.77457    1.000
    N373     N        0.73353    0.35846    0.77719    1.000
    N374     N        0.74548    0.37086    0.80120    1.000
    N375     N        0.68459    0.39342    0.82193    1.000
    N376     N        0.67447    0.38591    0.79486    1.000
    N377     N        0.84201    0.35839    0.73323    1.000
    N378     N        0.84033    0.38795    0.73427    1.000
    C249     C        0.81936    0.34820    0.74564    1.000
    H249     H        0.81520    0.32900    0.74810    1.000
    N379     N        0.80296    0.37040    0.75431    1.000
    C250     C        0.77194    0.37679    0.79550    1.000
    H250     H        0.78490    0.38520    0.80790    1.000
    N380     N        0.60676    0.48153    0.81178    1.000
    N381     N        0.62768    0.44046    0.81348    1.000
    N382     N        0.58835    0.46175    0.82428    1.000
    N383     N        0.64859    0.42011    0.81123    1.000
    C251     C        0.65275    0.40189    0.78908    1.000
    H251     H        0.64180    0.40110    0.77260    1.000
    C252     C        0.60136    0.43733    0.82490    1.000
    H252     H        0.59380    0.42050    0.83200    1.000
    C253     C        0.66867    0.41405    0.83128    1.000
    H253     H        0.67070    0.42320    0.84870    1.000
    C254     C        0.75281    0.35769    0.75752    1.000
    H254     H        0.75030    0.35080    0.73910    1.000
    C255     C        0.81645    0.39464    0.74666    1.000
    H255     H        0.80980    0.41300    0.74970    1.000
    C256     C        0.63009    0.46810    0.80521    1.000
    H256     H        0.64580    0.47610    0.79630    1.000
    N384     N        0.77729    0.36856    0.76815    1.000
    Cu65     Cu       0.41280    0.52951    0.37669    1.000
    Cu66     Cu       0.47543    0.55795    0.35004    1.000
    N385     N        0.47281    0.51647    0.35846    1.000
    N386     N        0.44880    0.50452    0.37086    1.000
    N387     N        0.42807    0.56541    0.39342    1.000
    N388     N        0.45514    0.57553    0.38591    1.000
    N389     N        0.51677    0.40799    0.35839    1.000
    N390     N        0.51573    0.40967    0.38795    1.000
    C257     C        0.50436    0.43064    0.34820    1.000
    H257     H        0.50190    0.43480    0.32900    1.000
    N391     N        0.49569    0.44704    0.37040    1.000
    C258     C        0.45450    0.47806    0.37679    1.000
    H258     H        0.44210    0.46510    0.38520    1.000
    N392     N        0.43822    0.64324    0.48153    1.000
    N393     N        0.43652    0.62232    0.44046    1.000
    N394     N        0.42572    0.66165    0.46175    1.000
    N395     N        0.43877    0.60141    0.42011    1.000
    C259     C        0.46092    0.59725    0.40189    1.000
    H259     H        0.47740    0.60820    0.40110    1.000
    C260     C        0.42510    0.64864    0.43733    1.000
    H260     H        0.41800    0.65620    0.42050    1.000
    C261     C        0.41872    0.58133    0.41405    1.000
    H261     H        0.40130    0.57930    0.42320    1.000
    C262     C        0.49248    0.49719    0.35769    1.000
    H262     H        0.51090    0.49970    0.35080    1.000
    C263     C        0.50334    0.43355    0.39464    1.000
    H263     H        0.50030    0.44020    0.41300    1.000
    C264     C        0.44479    0.61991    0.46810    1.000
    H264     H        0.45370    0.60420    0.47610    1.000
    N396     N        0.48185    0.47271    0.36856    1.000
    Cu67     Cu       0.41280    0.02951    0.87669    1.000
    Cu68     Cu       0.47543    0.05795    0.85004    1.000
    N397     N        0.47281    0.01647    0.85846    1.000
    N398     N        0.44880    0.00452    0.87086    1.000
    N399     N        0.42807    0.06541    0.89342    1.000
    N400     N        0.45514    0.07553    0.88591    1.000
    N401     N        0.51677    0.90799    0.85839    1.000
    N402     N        0.51573    0.90967    0.88795    1.000
    C265     C        0.50436    0.93064    0.84820    1.000
    H265     H        0.50190    0.93480    0.82900    1.000
    N403     N        0.49569    0.94704    0.87040    1.000
    C266     C        0.45450    0.97806    0.87679    1.000
    H266     H        0.44210    0.96510    0.88520    1.000
    N404     N        0.43822    0.14324    0.98153    1.000
    N405     N        0.43652    0.12232    0.94046    1.000
    N406     N        0.42572    0.16165    0.96175    1.000
    N407     N        0.43877    0.10141    0.92011    1.000
    C267     C        0.46092    0.09725    0.90189    1.000
    H267     H        0.47740    0.10820    0.90110    1.000
    C268     C        0.42510    0.14864    0.93733    1.000
    H268     H        0.41800    0.15620    0.92050    1.000
    C269     C        0.41872    0.08133    0.91405    1.000
    H269     H        0.40130    0.07930    0.92320    1.000
    C270     C        0.49248    0.99719    0.85769    1.000
    H270     H        0.51090    0.99970    0.85080    1.000
    C271     C        0.50334    0.93355    0.89464    1.000
    H271     H        0.50030    0.94020    0.91300    1.000
    C272     C        0.44479    0.11991    0.96810    1.000
    H272     H        0.45370    0.10420    0.97610    1.000
    N408     N        0.48185    0.97271    0.86856    1.000
    Cu69     Cu       0.91280    0.52951    0.87669    1.000
    Cu70     Cu       0.97543    0.55795    0.85004    1.000
    N409     N        0.97281    0.51647    0.85846    1.000
    N410     N        0.94880    0.50452    0.87086    1.000
    N411     N        0.92807    0.56541    0.89342    1.000
    N412     N        0.95514    0.57553    0.88591    1.000
    N413     N        0.01677    0.40799    0.85839    1.000
    N414     N        0.01573    0.40967    0.88795    1.000
    C273     C        0.00436    0.43064    0.84820    1.000
    H273     H        0.00190    0.43480    0.82900    1.000
    N415     N        0.99569    0.44704    0.87040    1.000
    C274     C        0.95450    0.47806    0.87679    1.000
    H274     H        0.94210    0.46510    0.88520    1.000
    N416     N        0.93822    0.64324    0.98153    1.000
    N417     N        0.93652    0.62232    0.94046    1.000
    N418     N        0.92572    0.66165    0.96175    1.000
    N419     N        0.93877    0.60141    0.92011    1.000
    C275     C        0.96092    0.59725    0.90189    1.000
    H275     H        0.97740    0.60820    0.90110    1.000
    C276     C        0.92510    0.64864    0.93733    1.000
    H276     H        0.91800    0.65620    0.92050    1.000
    C277     C        0.91872    0.58133    0.91405    1.000
    H277     H        0.90130    0.57930    0.92320    1.000
    C278     C        0.99248    0.49719    0.85769    1.000
    H278     H        0.01090    0.49970    0.85080    1.000
    C279     C        0.00334    0.43355    0.89464    1.000
    H279     H        0.00030    0.44020    0.91300    1.000
    C280     C        0.94479    0.61991    0.96810    1.000
    H280     H        0.95370    0.60420    0.97610    1.000
    N420     N        0.98185    0.47271    0.86856    1.000
    Cu71     Cu       0.91280    0.02951    0.37669    1.000
    Cu72     Cu       0.97543    0.05795    0.35004    1.000
    N421     N        0.97281    0.01647    0.35846    1.000
    N422     N        0.94880    0.00452    0.37086    1.000
    N423     N        0.92807    0.06541    0.39342    1.000
    N424     N        0.95514    0.07553    0.38591    1.000
    N425     N        0.01677    0.90799    0.35839    1.000
    N426     N        0.01573    0.90967    0.38795    1.000
    C281     C        0.00436    0.93064    0.34820    1.000
    H281     H        0.00190    0.93480    0.32900    1.000
    N427     N        0.99569    0.94704    0.37040    1.000
    C282     C        0.95450    0.97806    0.37679    1.000
    H282     H        0.94210    0.96510    0.38520    1.000
    N428     N        0.93822    0.14324    0.48153    1.000
    N429     N        0.93652    0.12232    0.44046    1.000
    N430     N        0.92572    0.16165    0.46175    1.000
    N431     N        0.93877    0.10141    0.42011    1.000
    C283     C        0.96092    0.09725    0.40189    1.000
    H283     H        0.97740    0.10820    0.40110    1.000
    C284     C        0.92510    0.14864    0.43733    1.000
    H284     H        0.91800    0.15620    0.42050    1.000
    C285     C        0.91872    0.08133    0.41405    1.000
    H285     H        0.90130    0.07930    0.42320    1.000
    C286     C        0.99248    0.99719    0.35769    1.000
    H286     H        0.01090    0.99970    0.35080    1.000
    C287     C        0.00334    0.93355    0.39464    1.000
    H287     H        0.00030    0.94020    0.41300    1.000
    C288     C        0.94479    0.11991    0.46810    1.000
    H288     H        0.95370    0.10420    0.47610    1.000
    N432     N        0.98185    0.97271    0.36856    1.000
    Cu73     Cu       0.33720    0.02951    0.87331    1.000
    Cu74     Cu       0.27457    0.05795    0.89996    1.000
    N433     N        0.27719    0.01647    0.89154    1.000
    N434     N        0.30120    0.00452    0.87914    1.000
    N435     N        0.32193    0.06541    0.85658    1.000
    N436     N        0.29486    0.07553    0.86409    1.000
    N437     N        0.23323    0.90799    0.89161    1.000
    N438     N        0.23427    0.90967    0.86205    1.000
    C289     C        0.24564    0.93064    0.90180    1.000
    H289     H        0.24810    0.93480    0.92100    1.000
    N439     N        0.25431    0.94704    0.87960    1.000
    C290     C        0.29550    0.97806    0.87321    1.000
    H290     H        0.30790    0.96510    0.86480    1.000
    N440     N        0.31178    0.14324    0.76847    1.000
    N441     N        0.31348    0.12232    0.80954    1.000
    N442     N        0.32428    0.16165    0.78825    1.000
    N443     N        0.31123    0.10141    0.82989    1.000
    C291     C        0.28908    0.09725    0.84811    1.000
    H291     H        0.27260    0.10820    0.84890    1.000
    C292     C        0.32490    0.14864    0.81267    1.000
    H292     H        0.33200    0.15620    0.82950    1.000
    C293     C        0.33128    0.08133    0.83595    1.000
    H293     H        0.34870    0.07930    0.82680    1.000
    C294     C        0.25752    0.99719    0.89231    1.000
    H294     H        0.23910    0.99970    0.89920    1.000
    C295     C        0.24666    0.93355    0.85536    1.000
    H295     H        0.24970    0.94020    0.83700    1.000
    C296     C        0.30521    0.11991    0.78190    1.000
    H296     H        0.29630    0.10420    0.77390    1.000
    N444     N        0.26815    0.97271    0.88144    1.000
    Cu75     Cu       0.33720    0.52951    0.37331    1.000
    Cu76     Cu       0.27457    0.55795    0.39996    1.000
    N445     N        0.27719    0.51647    0.39154    1.000
    N446     N        0.30120    0.50452    0.37914    1.000
    N447     N        0.32193    0.56541    0.35658    1.000
    N448     N        0.29486    0.57553    0.36409    1.000
    N449     N        0.23323    0.40799    0.39161    1.000
    N450     N        0.23427    0.40967    0.36205    1.000
    C297     C        0.24564    0.43064    0.40180    1.000
    H297     H        0.24810    0.43480    0.42100    1.000
    N451     N        0.25431    0.44704    0.37960    1.000
    C298     C        0.29550    0.47806    0.37321    1.000
    H298     H        0.30790    0.46510    0.36480    1.000
    N452     N        0.31178    0.64324    0.26847    1.000
    N453     N        0.31348    0.62232    0.30954    1.000
    N454     N        0.32428    0.66165    0.28825    1.000
    N455     N        0.31123    0.60141    0.32989    1.000
    C299     C        0.28908    0.59725    0.34811    1.000
    H299     H        0.27260    0.60820    0.34890    1.000
    C300     C        0.32490    0.64864    0.31267    1.000
    H300     H        0.33200    0.65620    0.32950    1.000
    C301     C        0.33128    0.58133    0.33595    1.000
    H301     H        0.34870    0.57930    0.32680    1.000
    C302     C        0.25752    0.49719    0.39231    1.000
    H302     H        0.23910    0.49970    0.39920    1.000
    C303     C        0.24666    0.43355    0.35536    1.000
    H303     H        0.24970    0.44020    0.33700    1.000
    C304     C        0.30521    0.61991    0.28190    1.000
    H304     H        0.29630    0.60420    0.27390    1.000
    N456     N        0.26815    0.47271    0.38144    1.000
    Cu77     Cu       0.83720    0.02951    0.37331    1.000
    Cu78     Cu       0.77457    0.05795    0.39996    1.000
    N457     N        0.77719    0.01647    0.39154    1.000
    N458     N        0.80120    0.00452    0.37914    1.000
    N459     N        0.82193    0.06541    0.35658    1.000
    N460     N        0.79486    0.07553    0.36409    1.000
    N461     N        0.73323    0.90799    0.39161    1.000
    N462     N        0.73427    0.90967    0.36205    1.000
    C305     C        0.74564    0.93064    0.40180    1.000
    H305     H        0.74810    0.93480    0.42100    1.000
    N463     N        0.75431    0.94704    0.37960    1.000
    C306     C        0.79550    0.97806    0.37321    1.000
    H306     H        0.80790    0.96510    0.36480    1.000
    N464     N        0.81178    0.14324    0.26847    1.000
    N465     N        0.81348    0.12232    0.30954    1.000
    N466     N        0.82428    0.16165    0.28825    1.000
    N467     N        0.81123    0.10141    0.32989    1.000
    C307     C        0.78908    0.09725    0.34811    1.000
    H307     H        0.77260    0.10820    0.34890    1.000
    C308     C        0.82490    0.14864    0.31267    1.000
    H308     H        0.83200    0.15620    0.32950    1.000
    C309     C        0.83128    0.08133    0.33595    1.000
    H309     H        0.84870    0.07930    0.32680    1.000
    C310     C        0.75752    0.99719    0.39231    1.000
    H310     H        0.73910    0.99970    0.39920    1.000
    C311     C        0.74666    0.93355    0.35536    1.000
    H311     H        0.74970    0.94020    0.33700    1.000
    C312     C        0.80521    0.11991    0.28190    1.000
    H312     H        0.79630    0.10420    0.27390    1.000
    N468     N        0.76815    0.97271    0.38144    1.000
    Cu79     Cu       0.83720    0.52951    0.87331    1.000
    Cu80     Cu       0.77457    0.55795    0.89996    1.000
    N469     N        0.77719    0.51647    0.89154    1.000
    N470     N        0.80120    0.50452    0.87914    1.000
    N471     N        0.82193    0.56541    0.85658    1.000
    N472     N        0.79486    0.57553    0.86409    1.000
    N473     N        0.73323    0.40799    0.89161    1.000
    N474     N        0.73427    0.40967    0.86205    1.000
    C313     C        0.74564    0.43064    0.90180    1.000
    H313     H        0.74810    0.43480    0.92100    1.000
    N475     N        0.75431    0.44704    0.87960    1.000
    C314     C        0.79550    0.47806    0.87321    1.000
    H314     H        0.80790    0.46510    0.86480    1.000
    N476     N        0.81178    0.64324    0.76847    1.000
    N477     N        0.81348    0.62232    0.80954    1.000
    N478     N        0.82428    0.66165    0.78825    1.000
    N479     N        0.81123    0.60141    0.82989    1.000
    C315     C        0.78908    0.59725    0.84811    1.000
    H315     H        0.77260    0.60820    0.84890    1.000
    C316     C        0.82490    0.64864    0.81267    1.000
    H316     H        0.83200    0.65620    0.82950    1.000
    C317     C        0.83128    0.58133    0.83595    1.000
    H317     H        0.84870    0.57930    0.82680    1.000
    C318     C        0.75752    0.49719    0.89231    1.000
    H318     H        0.73910    0.49970    0.89920    1.000
    C319     C        0.74666    0.43355    0.85536    1.000
    H319     H        0.74970    0.44020    0.83700    1.000
    C320     C        0.80521    0.61991    0.78190    1.000
    H320     H        0.79630    0.60420    0.77390    1.000
    N480     N        0.76815    0.47271    0.88144    1.000
    Cu81     Cu       0.91280    0.72050    0.37331    1.000
    Cu82     Cu       0.97543    0.69205    0.39996    1.000
    N481     N        0.97281    0.73353    0.39154    1.000
    N482     N        0.94880    0.74548    0.37914    1.000
    N483     N        0.92807    0.68459    0.35658    1.000
    N484     N        0.95514    0.67447    0.36409    1.000
    N485     N        0.01677    0.84201    0.39161    1.000
    N486     N        0.01573    0.84033    0.36205    1.000
    C321     C        0.00436    0.81936    0.40180    1.000
    H321     H        0.00190    0.81520    0.42100    1.000
    N487     N        0.99569    0.80296    0.37960    1.000
    C322     C        0.95450    0.77194    0.37321    1.000
    H322     H        0.94210    0.78490    0.36480    1.000
    N488     N        0.93822    0.60676    0.26847    1.000
    N489     N        0.93652    0.62768    0.30954    1.000
    N490     N        0.92572    0.58835    0.28825    1.000
    N491     N        0.93877    0.64859    0.32989    1.000
    C323     C        0.96092    0.65275    0.34811    1.000
    H323     H        0.97740    0.64180    0.34890    1.000
    C324     C        0.92510    0.60136    0.31267    1.000
    H324     H        0.91800    0.59380    0.32950    1.000
    C325     C        0.91872    0.66867    0.33595    1.000
    H325     H        0.90130    0.67070    0.32680    1.000
    C326     C        0.99248    0.75281    0.39231    1.000
    H326     H        0.01090    0.75030    0.39920    1.000
    C327     C        0.00334    0.81645    0.35536    1.000
    H327     H        0.00030    0.80980    0.33700    1.000
    C328     C        0.94479    0.63009    0.28190    1.000
    H328     H        0.95370    0.64580    0.27390    1.000
    N492     N        0.98185    0.77729    0.38144    1.000
    Cu83     Cu       0.91280    0.22050    0.87331    1.000
    Cu84     Cu       0.97543    0.19205    0.89996    1.000
    N493     N        0.97281    0.23353    0.89154    1.000
    N494     N        0.94880    0.24548    0.87914    1.000
    N495     N        0.92807    0.18459    0.85658    1.000
    N496     N        0.95514    0.17447    0.86409    1.000
    N497     N        0.01677    0.34201    0.89161    1.000
    N498     N        0.01573    0.34033    0.86205    1.000
    C329     C        0.00436    0.31936    0.90180    1.000
    H329     H        0.00190    0.31520    0.92100    1.000
    N499     N        0.99569    0.30296    0.87960    1.000
    C330     C        0.95450    0.27194    0.87321    1.000
    H330     H        0.94210    0.28490    0.86480    1.000
    N500     N        0.93822    0.10676    0.76847    1.000
    N501     N        0.93652    0.12768    0.80954    1.000
    N502     N        0.92572    0.08835    0.78825    1.000
    N503     N        0.93877    0.14859    0.82989    1.000
    C331     C        0.96092    0.15275    0.84811    1.000
    H331     H        0.97740    0.14180    0.84890    1.000
    C332     C        0.92510    0.10136    0.81267    1.000
    H332     H        0.91800    0.09380    0.82950    1.000
    C333     C        0.91872    0.16867    0.83595    1.000
    H333     H        0.90130    0.17070    0.82680    1.000
    C334     C        0.99248    0.25281    0.89231    1.000
    H334     H        0.01090    0.25030    0.89920    1.000
    C335     C        0.00334    0.31645    0.85536    1.000
    H335     H        0.00030    0.30980    0.83700    1.000
    C336     C        0.94479    0.13009    0.78190    1.000
    H336     H        0.95370    0.14580    0.77390    1.000
    N504     N        0.98185    0.27729    0.88144    1.000
    Cu85     Cu       0.41280    0.72050    0.87331    1.000
    Cu86     Cu       0.47543    0.69205    0.89996    1.000
    N505     N        0.47281    0.73353    0.89154    1.000
    N506     N        0.44880    0.74548    0.87914    1.000
    N507     N        0.42807    0.68459    0.85658    1.000
    N508     N        0.45514    0.67447    0.86409    1.000
    N509     N        0.51677    0.84201    0.89161    1.000
    N510     N        0.51573    0.84033    0.86205    1.000
    C337     C        0.50436    0.81936    0.90180    1.000
    H337     H        0.50190    0.81520    0.92100    1.000
    N511     N        0.49569    0.80296    0.87960    1.000
    C338     C        0.45450    0.77194    0.87321    1.000
    H338     H        0.44210    0.78490    0.86480    1.000
    N512     N        0.43822    0.60676    0.76847    1.000
    N513     N        0.43652    0.62768    0.80954    1.000
    N514     N        0.42572    0.58835    0.78825    1.000
    N515     N        0.43877    0.64859    0.82989    1.000
    C339     C        0.46092    0.65275    0.84811    1.000
    H339     H        0.47740    0.64180    0.84890    1.000
    C340     C        0.42510    0.60136    0.81267    1.000
    H340     H        0.41800    0.59380    0.82950    1.000
    C341     C        0.41872    0.66867    0.83595    1.000
    H341     H        0.40130    0.67070    0.82680    1.000
    C342     C        0.49248    0.75281    0.89231    1.000
    H342     H        0.51090    0.75030    0.89920    1.000
    C343     C        0.50334    0.81645    0.85536    1.000
    H343     H        0.50030    0.80980    0.83700    1.000
    C344     C        0.44479    0.63009    0.78190    1.000
    H344     H        0.45370    0.64580    0.77390    1.000
    N516     N        0.48185    0.77729    0.88144    1.000
    Cu87     Cu       0.41280    0.22050    0.37331    1.000
    Cu88     Cu       0.47543    0.19205    0.39996    1.000
    N517     N        0.47281    0.23353    0.39154    1.000
    N518     N        0.44880    0.24548    0.37914    1.000
    N519     N        0.42807    0.18459    0.35658    1.000
    N520     N        0.45514    0.17447    0.36409    1.000
    N521     N        0.51677    0.34201    0.39161    1.000
    N522     N        0.51573    0.34033    0.36205    1.000
    C345     C        0.50436    0.31936    0.40180    1.000
    H345     H        0.50190    0.31520    0.42100    1.000
    N523     N        0.49569    0.30296    0.37960    1.000
    C346     C        0.45450    0.27194    0.37321    1.000
    H346     H        0.44210    0.28490    0.36480    1.000
    N524     N        0.43822    0.10676    0.26847    1.000
    N525     N        0.43652    0.12768    0.30954    1.000
    N526     N        0.42572    0.08835    0.28825    1.000
    N527     N        0.43877    0.14859    0.32989    1.000
    C347     C        0.46092    0.15275    0.34811    1.000
    H347     H        0.47740    0.14180    0.34890    1.000
    C348     C        0.42510    0.10136    0.31267    1.000
    H348     H        0.41800    0.09380    0.32950    1.000
    C349     C        0.41872    0.16867    0.33595    1.000
    H349     H        0.40130    0.17070    0.32680    1.000
    C350     C        0.49248    0.25281    0.39231    1.000
    H350     H        0.51090    0.25030    0.39920    1.000
    C351     C        0.50334    0.31645    0.35536    1.000
    H351     H        0.50030    0.30980    0.33700    1.000
    C352     C        0.44479    0.13009    0.28190    1.000
    H352     H        0.45370    0.14580    0.27390    1.000
    N528     N        0.48185    0.27729    0.38144    1.000
    Cu89     Cu       0.83720    0.22050    0.87669    1.000
    Cu90     Cu       0.77457    0.19205    0.85004    1.000
    N529     N        0.77719    0.23353    0.85846    1.000
    N530     N        0.80120    0.24548    0.87086    1.000
    N531     N        0.82193    0.18459    0.89342    1.000
    N532     N        0.79486    0.17447    0.88591    1.000
    N533     N        0.73323    0.34201    0.85839    1.000
    N534     N        0.73427    0.34033    0.88795    1.000
    C353     C        0.74564    0.31936    0.84820    1.000
    H353     H        0.74810    0.31520    0.82900    1.000
    N535     N        0.75431    0.30296    0.87040    1.000
    C354     C        0.79550    0.27194    0.87679    1.000
    H354     H        0.80790    0.28490    0.88520    1.000
    N536     N        0.81178    0.10676    0.98153    1.000
    N537     N        0.81348    0.12768    0.94046    1.000
    N538     N        0.82428    0.08835    0.96175    1.000
    N539     N        0.81123    0.14859    0.92011    1.000
    C355     C        0.78908    0.15275    0.90189    1.000
    H355     H        0.77260    0.14180    0.90110    1.000
    C356     C        0.82490    0.10136    0.93733    1.000
    H356     H        0.83200    0.09380    0.92050    1.000
    C357     C        0.83128    0.16867    0.91405    1.000
    H357     H        0.84870    0.17070    0.92320    1.000
    C358     C        0.75752    0.25281    0.85769    1.000
    H358     H        0.73910    0.25030    0.85080    1.000
    C359     C        0.74666    0.31645    0.89464    1.000
    H359     H        0.74970    0.30980    0.91300    1.000
    C360     C        0.80521    0.13009    0.96810    1.000
    H360     H        0.79630    0.14580    0.97610    1.000
    N540     N        0.76815    0.27729    0.86856    1.000
    Cu91     Cu       0.83720    0.72050    0.37669    1.000
    Cu92     Cu       0.77457    0.69205    0.35004    1.000
    N541     N        0.77719    0.73353    0.35846    1.000
    N542     N        0.80120    0.74548    0.37086    1.000
    N543     N        0.82193    0.68459    0.39342    1.000
    N544     N        0.79486    0.67447    0.38591    1.000
    N545     N        0.73323    0.84201    0.35839    1.000
    N546     N        0.73427    0.84033    0.38795    1.000
    C361     C        0.74564    0.81936    0.34820    1.000
    H361     H        0.74810    0.81520    0.32900    1.000
    N547     N        0.75431    0.80296    0.37040    1.000
    C362     C        0.79550    0.77194    0.37679    1.000
    H362     H        0.80790    0.78490    0.38520    1.000
    N548     N        0.81178    0.60676    0.48153    1.000
    N549     N        0.81348    0.62768    0.44046    1.000
    N550     N        0.82428    0.58835    0.46175    1.000
    N551     N        0.81123    0.64859    0.42011    1.000
    C363     C        0.78908    0.65275    0.40189    1.000
    H363     H        0.77260    0.64180    0.40110    1.000
    C364     C        0.82490    0.60136    0.43733    1.000
    H364     H        0.83200    0.59380    0.42050    1.000
    C365     C        0.83128    0.66867    0.41405    1.000
    H365     H        0.84870    0.67070    0.42320    1.000
    C366     C        0.75752    0.75281    0.35769    1.000
    H366     H        0.73910    0.75030    0.35080    1.000
    C367     C        0.74666    0.81645    0.39464    1.000
    H367     H        0.74970    0.80980    0.41300    1.000
    C368     C        0.80521    0.63009    0.46810    1.000
    H368     H        0.79630    0.64580    0.47610    1.000
    N552     N        0.76815    0.77729    0.36856    1.000
    Cu93     Cu       0.33720    0.22050    0.37669    1.000
    Cu94     Cu       0.27457    0.19205    0.35004    1.000
    N553     N        0.27719    0.23353    0.35846    1.000
    N554     N        0.30120    0.24548    0.37086    1.000
    N555     N        0.32193    0.18459    0.39342    1.000
    N556     N        0.29486    0.17447    0.38591    1.000
    N557     N        0.23323    0.34201    0.35839    1.000
    N558     N        0.23427    0.34033    0.38795    1.000
    C369     C        0.24564    0.31936    0.34820    1.000
    H369     H        0.24810    0.31520    0.32900    1.000
    N559     N        0.25431    0.30296    0.37040    1.000
    C370     C        0.29550    0.27194    0.37679    1.000
    H370     H        0.30790    0.28490    0.38520    1.000
    N560     N        0.31178    0.10676    0.48153    1.000
    N561     N        0.31348    0.12768    0.44046    1.000
    N562     N        0.32428    0.08835    0.46175    1.000
    N563     N        0.31123    0.14859    0.42011    1.000
    C371     C        0.28908    0.15275    0.40189    1.000
    H371     H        0.27260    0.14180    0.40110    1.000
    C372     C        0.32490    0.10136    0.43733    1.000
    H372     H        0.33200    0.09380    0.42050    1.000
    C373     C        0.33128    0.16867    0.41405    1.000
    H373     H        0.34870    0.17070    0.42320    1.000
    C374     C        0.25752    0.25281    0.35769    1.000
    H374     H        0.23910    0.25030    0.35080    1.000
    C375     C        0.24666    0.31645    0.39464    1.000
    H375     H        0.24970    0.30980    0.41300    1.000
    C376     C        0.30521    0.13009    0.46810    1.000
    H376     H        0.29630    0.14580    0.47610    1.000
    N564     N        0.26815    0.27729    0.36856    1.000
    Cu95     Cu       0.33720    0.72050    0.87669    1.000
    Cu96     Cu       0.27457    0.69205    0.85004    1.000
    N565     N        0.27719    0.73353    0.85846    1.000
    N566     N        0.30120    0.74548    0.87086    1.000
    N567     N        0.32193    0.68459    0.89342    1.000
    N568     N        0.29486    0.67447    0.88591    1.000
    N569     N        0.23323    0.84201    0.85839    1.000
    N570     N        0.23427    0.84033    0.88795    1.000
    C377     C        0.24564    0.81936    0.84820    1.000
    H377     H        0.24810    0.81520    0.82900    1.000
    N571     N        0.25431    0.80296    0.87040    1.000
    C378     C        0.29550    0.77194    0.87679    1.000
    H378     H        0.30790    0.78490    0.88520    1.000
    N572     N        0.31178    0.60676    0.98153    1.000
    N573     N        0.31348    0.62768    0.94046    1.000
    N574     N        0.32428    0.58835    0.96175    1.000
    N575     N        0.31123    0.64859    0.92011    1.000
    C379     C        0.28908    0.65275    0.90189    1.000
    H379     H        0.27260    0.64180    0.90110    1.000
    C380     C        0.32490    0.60136    0.93733    1.000
    H380     H        0.33200    0.59380    0.92050    1.000
    C381     C        0.33128    0.66867    0.91405    1.000
    H381     H        0.34870    0.67070    0.92320    1.000
    C382     C        0.25752    0.75281    0.85769    1.000
    H382     H        0.23910    0.75030    0.85080    1.000
    C383     C        0.24666    0.81645    0.89464    1.000
    H383     H        0.24970    0.80980    0.91300    1.000
    C384     C        0.30521    0.63009    0.96810    1.000
    H384     H        0.29630    0.64580    0.97610    1.000
    N576     N        0.26815    0.77729    0.86856    1.000
    Cu97     Cu       0.16280    0.62669    0.47050    1.000
    Cu98     Cu       0.22543    0.60004    0.44205    1.000
    N577     N        0.22281    0.60846    0.48353    1.000
    N578     N        0.19880    0.62086    0.49548    1.000
    N579     N        0.17807    0.64342    0.43459    1.000
    N580     N        0.20514    0.63591    0.42447    1.000
    N581     N        0.26677    0.60839    0.59201    1.000
    N582     N        0.26573    0.63795    0.59033    1.000
    C385     C        0.25436    0.59820    0.56936    1.000
    H385     H        0.25190    0.57900    0.56520    1.000
    N583     N        0.24569    0.62040    0.55296    1.000
    C386     C        0.20450    0.62679    0.52194    1.000
    H386     H        0.19210    0.63520    0.53490    1.000
    N584     N        0.18822    0.73153    0.35676    1.000
    N585     N        0.18652    0.69046    0.37768    1.000
    N586     N        0.17572    0.71175    0.33835    1.000
    N587     N        0.18877    0.67011    0.39859    1.000
    C387     C        0.21092    0.65189    0.40275    1.000
    H387     H        0.22740    0.65110    0.39180    1.000
    C388     C        0.17510    0.68733    0.35136    1.000
    H388     H        0.16800    0.67050    0.34380    1.000
    C389     C        0.16872    0.66405    0.41867    1.000
    H389     H        0.15130    0.67320    0.42070    1.000
    C390     C        0.24248    0.60769    0.50281    1.000
    H390     H        0.26090    0.60080    0.50030    1.000
    C391     C        0.25334    0.64464    0.56645    1.000
    H391     H        0.25030    0.66300    0.55980    1.000
    C392     C        0.19479    0.71810    0.38009    1.000
    H392     H        0.20370    0.72610    0.39580    1.000
    N588     N        0.23185    0.61856    0.52729    1.000
    Cu99     Cu       0.16280    0.12669    0.97050    1.000
    Cu100    Cu       0.22543    0.10004    0.94205    1.000
    N589     N        0.22281    0.10846    0.98353    1.000
    N590     N        0.19880    0.12086    0.99548    1.000
    N591     N        0.17807    0.14342    0.93459    1.000
    N592     N        0.20514    0.13591    0.92447    1.000
    N593     N        0.26677    0.10839    0.09201    1.000
    N594     N        0.26573    0.13795    0.09033    1.000
    C393     C        0.25436    0.09820    0.06936    1.000
    H393     H        0.25190    0.07900    0.06520    1.000
    N595     N        0.24569    0.12040    0.05296    1.000
    C394     C        0.20450    0.12679    0.02194    1.000
    H394     H        0.19210    0.13520    0.03490    1.000
    N596     N        0.18822    0.23153    0.85676    1.000
    N597     N        0.18652    0.19046    0.87768    1.000
    N598     N        0.17572    0.21175    0.83835    1.000
    N599     N        0.18877    0.17011    0.89859    1.000
    C395     C        0.21092    0.15189    0.90275    1.000
    H395     H        0.22740    0.15110    0.89180    1.000
    C396     C        0.17510    0.18733    0.85136    1.000
    H396     H        0.16800    0.17050    0.84380    1.000
    C397     C        0.16872    0.16405    0.91867    1.000
    H397     H        0.15130    0.17320    0.92070    1.000
    C398     C        0.24248    0.10769    0.00281    1.000
    H398     H        0.26090    0.10080    0.00030    1.000
    C399     C        0.25334    0.14464    0.06645    1.000
    H399     H        0.25030    0.16300    0.05980    1.000
    C400     C        0.19479    0.21810    0.88009    1.000
    H400     H        0.20370    0.22610    0.89580    1.000
    N600     N        0.23185    0.11856    0.02729    1.000
    Cu101    Cu       0.66280    0.62669    0.97050    1.000
    Cu102    Cu       0.72543    0.60004    0.94205    1.000
    N601     N        0.72281    0.60846    0.98353    1.000
    N602     N        0.69880    0.62086    0.99548    1.000
    N603     N        0.67807    0.64342    0.93459    1.000
    N604     N        0.70514    0.63591    0.92447    1.000
    N605     N        0.76677    0.60839    0.09201    1.000
    N606     N        0.76573    0.63795    0.09033    1.000
    C401     C        0.75436    0.59820    0.06936    1.000
    H401     H        0.75190    0.57900    0.06520    1.000
    N607     N        0.74569    0.62040    0.05296    1.000
    C402     C        0.70450    0.62679    0.02194    1.000
    H402     H        0.69210    0.63520    0.03490    1.000
    N608     N        0.68822    0.73153    0.85676    1.000
    N609     N        0.68652    0.69046    0.87768    1.000
    N610     N        0.67572    0.71175    0.83835    1.000
    N611     N        0.68877    0.67011    0.89859    1.000
    C403     C        0.71092    0.65189    0.90275    1.000
    H403     H        0.72740    0.65110    0.89180    1.000
    C404     C        0.67510    0.68733    0.85136    1.000
    H404     H        0.66800    0.67050    0.84380    1.000
    C405     C        0.66872    0.66405    0.91867    1.000
    H405     H        0.65130    0.67320    0.92070    1.000
    C406     C        0.74248    0.60769    0.00281    1.000
    H406     H        0.76090    0.60080    0.00030    1.000
    C407     C        0.75334    0.64464    0.06645    1.000
    H407     H        0.75030    0.66300    0.05980    1.000
    C408     C        0.69479    0.71810    0.88009    1.000
    H408     H        0.70370    0.72610    0.89580    1.000
    N612     N        0.73185    0.61856    0.02729    1.000
    Cu103    Cu       0.66280    0.12669    0.47050    1.000
    Cu104    Cu       0.72543    0.10004    0.44205    1.000
    N613     N        0.72281    0.10846    0.48353    1.000
    N614     N        0.69880    0.12086    0.49548    1.000
    N615     N        0.67807    0.14342    0.43459    1.000
    N616     N        0.70514    0.13591    0.42447    1.000
    N617     N        0.76677    0.10839    0.59201    1.000
    N618     N        0.76573    0.13795    0.59033    1.000
    C409     C        0.75436    0.09820    0.56936    1.000
    H409     H        0.75190    0.07900    0.56520    1.000
    N619     N        0.74569    0.12040    0.55296    1.000
    C410     C        0.70450    0.12679    0.52194    1.000
    H410     H        0.69210    0.13520    0.53490    1.000
    N620     N        0.68822    0.23153    0.35676    1.000
    N621     N        0.68652    0.19046    0.37768    1.000
    N622     N        0.67572    0.21175    0.33835    1.000
    N623     N        0.68877    0.17011    0.39859    1.000
    C411     C        0.71092    0.15189    0.40275    1.000
    H411     H        0.72740    0.15110    0.39180    1.000
    C412     C        0.67510    0.18733    0.35136    1.000
    H412     H        0.66800    0.17050    0.34380    1.000
    C413     C        0.66872    0.16405    0.41867    1.000
    H413     H        0.65130    0.17320    0.42070    1.000
    C414     C        0.74248    0.10769    0.50281    1.000
    H414     H        0.76090    0.10080    0.50030    1.000
    C415     C        0.75334    0.14464    0.56645    1.000
    H415     H        0.75030    0.16300    0.55980    1.000
    C416     C        0.69479    0.21810    0.38009    1.000
    H416     H        0.70370    0.22610    0.39580    1.000
    N624     N        0.73185    0.11856    0.52729    1.000
    Cu105    Cu       0.08720    0.12331    0.97050    1.000
    Cu106    Cu       0.02457    0.14996    0.94205    1.000
    N625     N        0.02719    0.14154    0.98353    1.000
    N626     N        0.05120    0.12914    0.99548    1.000
    N627     N        0.07193    0.10658    0.93459    1.000
    N628     N        0.04486    0.11409    0.92447    1.000
    N629     N        0.98323    0.14161    0.09201    1.000
    N630     N        0.98427    0.11205    0.09033    1.000
    C417     C        0.99564    0.15180    0.06936    1.000
    H417     H        0.99810    0.17100    0.06520    1.000
    N631     N        0.00431    0.12960    0.05296    1.000
    C418     C        0.04550    0.12321    0.02194    1.000
    H418     H        0.05790    0.11480    0.03490    1.000
    N632     N        0.06178    0.01847    0.85676    1.000
    N633     N        0.06348    0.05954    0.87768    1.000
    N634     N        0.07428    0.03825    0.83835    1.000
    N635     N        0.06123    0.07989    0.89859    1.000
    C419     C        0.03908    0.09811    0.90275    1.000
    H419     H        0.02260    0.09890    0.89180    1.000
    C420     C        0.07490    0.06267    0.85136    1.000
    H420     H        0.08200    0.07950    0.84380    1.000
    C421     C        0.08128    0.08595    0.91867    1.000
    H421     H        0.09870    0.07680    0.92070    1.000
    C422     C        0.00752    0.14231    0.00281    1.000
    H422     H        0.98910    0.14920    0.00030    1.000
    C423     C        0.99666    0.10536    0.06645    1.000
    H423     H        0.99970    0.08700    0.05980    1.000
    C424     C        0.05521    0.03190    0.88009    1.000
    H424     H        0.04630    0.02390    0.89580    1.000
    N636     N        0.01815    0.13144    0.02729    1.000
    Cu107    Cu       0.08720    0.62331    0.47050    1.000
    Cu108    Cu       0.02457    0.64996    0.44205    1.000
    N637     N        0.02719    0.64154    0.48353    1.000
    N638     N        0.05120    0.62914    0.49548    1.000
    N639     N        0.07193    0.60658    0.43459    1.000
    N640     N        0.04486    0.61409    0.42447    1.000
    N641     N        0.98323    0.64161    0.59201    1.000
    N642     N        0.98427    0.61205    0.59033    1.000
    C425     C        0.99564    0.65180    0.56936    1.000
    H425     H        0.99810    0.67100    0.56520    1.000
    N643     N        0.00431    0.62960    0.55296    1.000
    C426     C        0.04550    0.62321    0.52194    1.000
    H426     H        0.05790    0.61480    0.53490    1.000
    N644     N        0.06178    0.51847    0.35676    1.000
    N645     N        0.06348    0.55954    0.37768    1.000
    N646     N        0.07428    0.53825    0.33835    1.000
    N647     N        0.06123    0.57989    0.39859    1.000
    C427     C        0.03908    0.59811    0.40275    1.000
    H427     H        0.02260    0.59890    0.39180    1.000
    C428     C        0.07490    0.56267    0.35136    1.000
    H428     H        0.08200    0.57950    0.34380    1.000
    C429     C        0.08128    0.58595    0.41867    1.000
    H429     H        0.09870    0.57680    0.42070    1.000
    C430     C        0.00752    0.64231    0.50281    1.000
    H430     H        0.98910    0.64920    0.50030    1.000
    C431     C        0.99666    0.60536    0.56645    1.000
    H431     H        0.99970    0.58700    0.55980    1.000
    C432     C        0.05521    0.53190    0.38009    1.000
    H432     H        0.04630    0.52390    0.39580    1.000
    N648     N        0.01815    0.63144    0.52729    1.000
    Cu109    Cu       0.58720    0.12331    0.47050    1.000
    Cu110    Cu       0.52457    0.14996    0.44205    1.000
    N649     N        0.52719    0.14154    0.48353    1.000
    N650     N        0.55120    0.12914    0.49548    1.000
    N651     N        0.57193    0.10658    0.43459    1.000
    N652     N        0.54486    0.11409    0.42447    1.000
    N653     N        0.48323    0.14161    0.59201    1.000
    N654     N        0.48427    0.11205    0.59033    1.000
    C433     C        0.49564    0.15180    0.56936    1.000
    H433     H        0.49810    0.17100    0.56520    1.000
    N655     N        0.50431    0.12960    0.55296    1.000
    C434     C        0.54550    0.12321    0.52194    1.000
    H434     H        0.55790    0.11480    0.53490    1.000
    N656     N        0.56178    0.01847    0.35676    1.000
    N657     N        0.56348    0.05954    0.37768    1.000
    N658     N        0.57428    0.03825    0.33835    1.000
    N659     N        0.56123    0.07989    0.39859    1.000
    C435     C        0.53908    0.09811    0.40275    1.000
    H435     H        0.52260    0.09890    0.39180    1.000
    C436     C        0.57490    0.06267    0.35136    1.000
    H436     H        0.58200    0.07950    0.34380    1.000
    C437     C        0.58128    0.08595    0.41867    1.000
    H437     H        0.59870    0.07680    0.42070    1.000
    C438     C        0.50752    0.14231    0.50281    1.000
    H438     H        0.48910    0.14920    0.50030    1.000
    C439     C        0.49666    0.10536    0.56645    1.000
    H439     H        0.49970    0.08700    0.55980    1.000
    C440     C        0.55521    0.03190    0.38009    1.000
    H440     H        0.54630    0.02390    0.39580    1.000
    N660     N        0.51815    0.13144    0.52729    1.000
    Cu111    Cu       0.58720    0.62331    0.97050    1.000
    Cu112    Cu       0.52457    0.64996    0.94205    1.000
    N661     N        0.52719    0.64154    0.98353    1.000
    N662     N        0.55120    0.62914    0.99548    1.000
    N663     N        0.57193    0.60658    0.93459    1.000
    N664     N        0.54486    0.61409    0.92447    1.000
    N665     N        0.48323    0.64161    0.09201    1.000
    N666     N        0.48427    0.61205    0.09033    1.000
    C441     C        0.49564    0.65180    0.06936    1.000
    H441     H        0.49810    0.67100    0.06520    1.000
    N667     N        0.50431    0.62960    0.05296    1.000
    C442     C        0.54550    0.62321    0.02194    1.000
    H442     H        0.55790    0.61480    0.03490    1.000
    N668     N        0.56178    0.51847    0.85676    1.000
    N669     N        0.56348    0.55954    0.87768    1.000
    N670     N        0.57428    0.53825    0.83835    1.000
    N671     N        0.56123    0.57989    0.89859    1.000
    C443     C        0.53908    0.59811    0.90275    1.000
    H443     H        0.52260    0.59890    0.89180    1.000
    C444     C        0.57490    0.56267    0.85136    1.000
    H444     H        0.58200    0.57950    0.84380    1.000
    C445     C        0.58128    0.58595    0.91867    1.000
    H445     H        0.59870    0.57680    0.92070    1.000
    C446     C        0.50752    0.64231    0.00281    1.000
    H446     H        0.48910    0.64920    0.00030    1.000
    C447     C        0.49666    0.60536    0.06645    1.000
    H447     H        0.49970    0.58700    0.05980    1.000
    C448     C        0.55521    0.53190    0.88009    1.000
    H448     H        0.54630    0.52390    0.89580    1.000
    N672     N        0.51815    0.63144    0.02729    1.000
    Cu113    Cu       0.66280    0.62331    0.27951    1.000
    Cu114    Cu       0.72543    0.64996    0.30795    1.000
    N673     N        0.72281    0.64154    0.26647    1.000
    N674     N        0.69880    0.62914    0.25452    1.000
    N675     N        0.67807    0.60658    0.31541    1.000
    N676     N        0.70514    0.61409    0.32553    1.000
    N677     N        0.76677    0.64161    0.15799    1.000
    N678     N        0.76573    0.61205    0.15967    1.000
    C449     C        0.75436    0.65180    0.18064    1.000
    H449     H        0.75190    0.67100    0.18480    1.000
    N679     N        0.74569    0.62960    0.19704    1.000
    C450     C        0.70450    0.62321    0.22806    1.000
    H450     H        0.69210    0.61480    0.21510    1.000
    N680     N        0.68822    0.51847    0.39324    1.000
    N681     N        0.68652    0.55954    0.37232    1.000
    N682     N        0.67572    0.53825    0.41165    1.000
    N683     N        0.68877    0.57989    0.35141    1.000
    C451     C        0.71092    0.59811    0.34725    1.000
    H451     H        0.72740    0.59890    0.35820    1.000
    C452     C        0.67510    0.56267    0.39864    1.000
    H452     H        0.66800    0.57950    0.40620    1.000
    C453     C        0.66872    0.58595    0.33133    1.000
    H453     H        0.65130    0.57680    0.32930    1.000
    C454     C        0.74248    0.64231    0.24719    1.000
    H454     H        0.76090    0.64920    0.24970    1.000
    C455     C        0.75334    0.60536    0.18355    1.000
    H455     H        0.75030    0.58700    0.19020    1.000
    C456     C        0.69479    0.53190    0.36991    1.000
    H456     H        0.70370    0.52390    0.35420    1.000
    N684     N        0.73185    0.63144    0.22271    1.000
    Cu115    Cu       0.66280    0.12331    0.77951    1.000
    Cu116    Cu       0.72543    0.14996    0.80795    1.000
    N685     N        0.72281    0.14154    0.76647    1.000
    N686     N        0.69880    0.12914    0.75452    1.000
    N687     N        0.67807    0.10658    0.81541    1.000
    N688     N        0.70514    0.11409    0.82553    1.000
    N689     N        0.76677    0.14161    0.65799    1.000
    N690     N        0.76573    0.11205    0.65967    1.000
    C457     C        0.75436    0.15180    0.68064    1.000
    H457     H        0.75190    0.17100    0.68480    1.000
    N691     N        0.74569    0.12960    0.69704    1.000
    C458     C        0.70450    0.12321    0.72806    1.000
    H458     H        0.69210    0.11480    0.71510    1.000
    N692     N        0.68822    0.01847    0.89324    1.000
    N693     N        0.68652    0.05954    0.87232    1.000
    N694     N        0.67572    0.03825    0.91165    1.000
    N695     N        0.68877    0.07989    0.85141    1.000
    C459     C        0.71092    0.09811    0.84725    1.000
    H459     H        0.72740    0.09890    0.85820    1.000
    C460     C        0.67510    0.06267    0.89864    1.000
    H460     H        0.66800    0.07950    0.90620    1.000
    C461     C        0.66872    0.08595    0.83133    1.000
    H461     H        0.65130    0.07680    0.82930    1.000
    C462     C        0.74248    0.14231    0.74719    1.000
    H462     H        0.76090    0.14920    0.74970    1.000
    C463     C        0.75334    0.10536    0.68355    1.000
    H463     H        0.75030    0.08700    0.69020    1.000
    C464     C        0.69479    0.03190    0.86991    1.000
    H464     H        0.70370    0.02390    0.85420    1.000
    N696     N        0.73185    0.13144    0.72271    1.000
    Cu117    Cu       0.16280    0.62331    0.77951    1.000
    Cu118    Cu       0.22543    0.64996    0.80795    1.000
    N697     N        0.22281    0.64154    0.76647    1.000
    N698     N        0.19880    0.62914    0.75452    1.000
    N699     N        0.17807    0.60658    0.81541    1.000
    N700     N        0.20514    0.61409    0.82553    1.000
    N701     N        0.26677    0.64161    0.65799    1.000
    N702     N        0.26573    0.61205    0.65967    1.000
    C465     C        0.25436    0.65180    0.68064    1.000
    H465     H        0.25190    0.67100    0.68480    1.000
    N703     N        0.24569    0.62960    0.69704    1.000
    C466     C        0.20450    0.62321    0.72806    1.000
    H466     H        0.19210    0.61480    0.71510    1.000
    N704     N        0.18822    0.51847    0.89324    1.000
    N705     N        0.18652    0.55954    0.87232    1.000
    N706     N        0.17572    0.53825    0.91165    1.000
    N707     N        0.18877    0.57989    0.85141    1.000
    C467     C        0.21092    0.59811    0.84725    1.000
    H467     H        0.22740    0.59890    0.85820    1.000
    C468     C        0.17510    0.56267    0.89864    1.000
    H468     H        0.16800    0.57950    0.90620    1.000
    C469     C        0.16872    0.58595    0.83133    1.000
    H469     H        0.15130    0.57680    0.82930    1.000
    C470     C        0.24248    0.64231    0.74719    1.000
    H470     H        0.26090    0.64920    0.74970    1.000
    C471     C        0.25334    0.60536    0.68355    1.000
    H471     H        0.25030    0.58700    0.69020    1.000
    C472     C        0.19479    0.53190    0.86991    1.000
    H472     H        0.20370    0.52390    0.85420    1.000
    N708     N        0.23185    0.63144    0.72271    1.000
    Cu119    Cu       0.16280    0.12331    0.27951    1.000
    Cu120    Cu       0.22543    0.14996    0.30795    1.000
    N709     N        0.22281    0.14154    0.26647    1.000
    N710     N        0.19880    0.12914    0.25452    1.000
    N711     N        0.17807    0.10658    0.31541    1.000
    N712     N        0.20514    0.11409    0.32553    1.000
    N713     N        0.26677    0.14161    0.15799    1.000
    N714     N        0.26573    0.11205    0.15967    1.000
    C473     C        0.25436    0.15180    0.18064    1.000
    H473     H        0.25190    0.17100    0.18480    1.000
    N715     N        0.24569    0.12960    0.19704    1.000
    C474     C        0.20450    0.12321    0.22806    1.000
    H474     H        0.19210    0.11480    0.21510    1.000
    N716     N        0.18822    0.01847    0.39324    1.000
    N717     N        0.18652    0.05954    0.37232    1.000
    N718     N        0.17572    0.03825    0.41165    1.000
    N719     N        0.18877    0.07989    0.35141    1.000
    C475     C        0.21092    0.09811    0.34725    1.000
    H475     H        0.22740    0.09890    0.35820    1.000
    C476     C        0.17510    0.06267    0.39864    1.000
    H476     H        0.16800    0.07950    0.40620    1.000
    C477     C        0.16872    0.08595    0.33133    1.000
    H477     H        0.15130    0.07680    0.32930    1.000
    C478     C        0.24248    0.14231    0.24719    1.000
    H478     H        0.26090    0.14920    0.24970    1.000
    C479     C        0.25334    0.10536    0.18355    1.000
    H479     H        0.25030    0.08700    0.19020    1.000
    C480     C        0.19479    0.03190    0.36991    1.000
    H480     H        0.20370    0.02390    0.35420    1.000
    N720     N        0.23185    0.13144    0.22271    1.000
    Cu121    Cu       0.58720    0.12669    0.77951    1.000
    Cu122    Cu       0.52457    0.10004    0.80795    1.000
    N721     N        0.52719    0.10846    0.76647    1.000
    N722     N        0.55120    0.12086    0.75452    1.000
    N723     N        0.57193    0.14342    0.81541    1.000
    N724     N        0.54486    0.13591    0.82553    1.000
    N725     N        0.48323    0.10839    0.65799    1.000
    N726     N        0.48427    0.13795    0.65967    1.000
    C481     C        0.49564    0.09820    0.68064    1.000
    H481     H        0.49810    0.07900    0.68480    1.000
    N727     N        0.50431    0.12040    0.69704    1.000
    C482     C        0.54550    0.12679    0.72806    1.000
    H482     H        0.55790    0.13520    0.71510    1.000
    N728     N        0.56178    0.23153    0.89324    1.000
    N729     N        0.56348    0.19046    0.87232    1.000
    N730     N        0.57428    0.21175    0.91165    1.000
    N731     N        0.56123    0.17011    0.85141    1.000
    C483     C        0.53908    0.15189    0.84725    1.000
    H483     H        0.52260    0.15110    0.85820    1.000
    C484     C        0.57490    0.18733    0.89864    1.000
    H484     H        0.58200    0.17050    0.90620    1.000
    C485     C        0.58128    0.16405    0.83133    1.000
    H485     H        0.59870    0.17320    0.82930    1.000
    C486     C        0.50752    0.10769    0.74719    1.000
    H486     H        0.48910    0.10080    0.74970    1.000
    C487     C        0.49666    0.14464    0.68355    1.000
    H487     H        0.49970    0.16300    0.69020    1.000
    C488     C        0.55521    0.21810    0.86991    1.000
    H488     H        0.54630    0.22610    0.85420    1.000
    N732     N        0.51815    0.11856    0.72271    1.000
    Cu123    Cu       0.58720    0.62669    0.27951    1.000
    Cu124    Cu       0.52457    0.60004    0.30795    1.000
    N733     N        0.52719    0.60846    0.26647    1.000
    N734     N        0.55120    0.62086    0.25452    1.000
    N735     N        0.57193    0.64342    0.31541    1.000
    N736     N        0.54486    0.63591    0.32553    1.000
    N737     N        0.48323    0.60839    0.15799    1.000
    N738     N        0.48427    0.63795    0.15967    1.000
    C489     C        0.49564    0.59820    0.18064    1.000
    H489     H        0.49810    0.57900    0.18480    1.000
    N739     N        0.50431    0.62040    0.19704    1.000
    C490     C        0.54550    0.62679    0.22806    1.000
    H490     H        0.55790    0.63520    0.21510    1.000
    N740     N        0.56178    0.73153    0.39324    1.000
    N741     N        0.56348    0.69046    0.37232    1.000
    N742     N        0.57428    0.71175    0.41165    1.000
    N743     N        0.56123    0.67011    0.35141    1.000
    C491     C        0.53908    0.65189    0.34725    1.000
    H491     H        0.52260    0.65110    0.35820    1.000
    C492     C        0.57490    0.68733    0.39864    1.000
    H492     H        0.58200    0.67050    0.40620    1.000
    C493     C        0.58128    0.66405    0.33133    1.000
    H493     H        0.59870    0.67320    0.32930    1.000
    C494     C        0.50752    0.60769    0.24719    1.000
    H494     H        0.48910    0.60080    0.24970    1.000
    C495     C        0.49666    0.64464    0.18355    1.000
    H495     H        0.49970    0.66300    0.19020    1.000
    C496     C        0.55521    0.71810    0.36991    1.000
    H496     H        0.54630    0.72610    0.35420    1.000
    N744     N        0.51815    0.61856    0.22271    1.000
    Cu125    Cu       0.08720    0.12669    0.27951    1.000
    Cu126    Cu       0.02457    0.10004    0.30795    1.000
    N745     N        0.02719    0.10846    0.26647    1.000
    N746     N        0.05120    0.12086    0.25452    1.000
    N747     N        0.07193    0.14342    0.31541    1.000
    N748     N        0.04486    0.13591    0.32553    1.000
    N749     N        0.98323    0.10839    0.15799    1.000
    N750     N        0.98427    0.13795    0.15967    1.000
    C497     C        0.99564    0.09820    0.18064    1.000
    H497     H        0.99810    0.07900    0.18480    1.000
    N751     N        0.00431    0.12040    0.19704    1.000
    C498     C        0.04550    0.12679    0.22806    1.000
    H498     H        0.05790    0.13520    0.21510    1.000
    N752     N        0.06178    0.23153    0.39324    1.000
    N753     N        0.06348    0.19046    0.37232    1.000
    N754     N        0.07428    0.21175    0.41165    1.000
    N755     N        0.06123    0.17011    0.35141    1.000
    C499     C        0.03908    0.15189    0.34725    1.000
    H499     H        0.02260    0.15110    0.35820    1.000
    C500     C        0.07490    0.18733    0.39864    1.000
    H500     H        0.08200    0.17050    0.40620    1.000
    C501     C        0.08128    0.16405    0.33133    1.000
    H501     H        0.09870    0.17320    0.32930    1.000
    C502     C        0.00752    0.10769    0.24719    1.000
    H502     H        0.98910    0.10080    0.24970    1.000
    C503     C        0.99666    0.14464    0.18355    1.000
    H503     H        0.99970    0.16300    0.19020    1.000
    C504     C        0.05521    0.21810    0.36991    1.000
    H504     H        0.04630    0.22610    0.35420    1.000
    N756     N        0.01815    0.11856    0.22271    1.000
    Cu127    Cu       0.08720    0.62669    0.77951    1.000
    Cu128    Cu       0.02457    0.60004    0.80795    1.000
    N757     N        0.02719    0.60846    0.76647    1.000
    N758     N        0.05120    0.62086    0.75452    1.000
    N759     N        0.07193    0.64342    0.81541    1.000
    N760     N        0.04486    0.63591    0.82553    1.000
    N761     N        0.98323    0.60839    0.65799    1.000
    N762     N        0.98427    0.63795    0.65967    1.000
    C505     C        0.99564    0.59820    0.68064    1.000
    H505     H        0.99810    0.57900    0.68480    1.000
    N763     N        0.00431    0.62040    0.69704    1.000
    C506     C        0.04550    0.62679    0.72806    1.000
    H506     H        0.05790    0.63520    0.71510    1.000
    N764     N        0.06178    0.73153    0.89324    1.000
    N765     N        0.06348    0.69046    0.87232    1.000
    N766     N        0.07428    0.71175    0.91165    1.000
    N767     N        0.06123    0.67011    0.85141    1.000
    C507     C        0.03908    0.65189    0.84725    1.000
    H507     H        0.02260    0.65110    0.85820    1.000
    C508     C        0.07490    0.68733    0.89864    1.000
    H508     H        0.08200    0.67050    0.90620    1.000
    C509     C        0.08128    0.66405    0.83133    1.000
    H509     H        0.09870    0.67320    0.82930    1.000
    C510     C        0.00752    0.60769    0.74719    1.000
    H510     H        0.98910    0.60080    0.74970    1.000
    C511     C        0.99666    0.64464    0.68355    1.000
    H511     H        0.99970    0.66300    0.69020    1.000
    C512     C        0.05521    0.71810    0.86991    1.000
    H512     H        0.04630    0.72610    0.85420    1.000
    N768     N        0.01815    0.61856    0.72271    1.000
    Cu129    Cu       0.12669    0.77951    0.58720    1.000
    Cu130    Cu       0.10004    0.80795    0.52457    1.000
    N769     N        0.10846    0.76647    0.52719    1.000
    N770     N        0.12086    0.75452    0.55120    1.000
    N771     N        0.14342    0.81541    0.57193    1.000
    N772     N        0.13591    0.82553    0.54486    1.000
    N773     N        0.10839    0.65799    0.48323    1.000
    N774     N        0.13795    0.65967    0.48427    1.000
    C513     C        0.09820    0.68064    0.49564    1.000
    H513     H        0.07900    0.68480    0.49810    1.000
    N775     N        0.12040    0.69704    0.50431    1.000
    C514     C        0.12679    0.72806    0.54550    1.000
    H514     H        0.13520    0.71510    0.55790    1.000
    N776     N        0.23153    0.89324    0.56178    1.000
    N777     N        0.19046    0.87232    0.56348    1.000
    N778     N        0.21175    0.91165    0.57428    1.000
    N779     N        0.17011    0.85141    0.56123    1.000
    C515     C        0.15189    0.84725    0.53908    1.000
    H515     H        0.15110    0.85820    0.52260    1.000
    C516     C        0.18733    0.89864    0.57490    1.000
    H516     H        0.17050    0.90620    0.58200    1.000
    C517     C        0.16405    0.83133    0.58128    1.000
    H517     H        0.17320    0.82930    0.59870    1.000
    C518     C        0.10769    0.74719    0.50752    1.000
    H518     H        0.10080    0.74970    0.48910    1.000
    C519     C        0.14464    0.68355    0.49666    1.000
    H519     H        0.16300    0.69020    0.49970    1.000
    C520     C        0.21810    0.86991    0.55521    1.000
    H520     H        0.22610    0.85420    0.54630    1.000
    N780     N        0.11856    0.72271    0.51815    1.000
    Cu131    Cu       0.12669    0.27951    0.08720    1.000
    Cu132    Cu       0.10004    0.30795    0.02457    1.000
    N781     N        0.10846    0.26647    0.02719    1.000
    N782     N        0.12086    0.25452    0.05120    1.000
    N783     N        0.14342    0.31541    0.07193    1.000
    N784     N        0.13591    0.32553    0.04486    1.000
    N785     N        0.10839    0.15799    0.98323    1.000
    N786     N        0.13795    0.15967    0.98427    1.000
    C521     C        0.09820    0.18064    0.99564    1.000
    H521     H        0.07900    0.18480    0.99810    1.000
    N787     N        0.12040    0.19704    0.00431    1.000
    C522     C        0.12679    0.22806    0.04550    1.000
    H522     H        0.13520    0.21510    0.05790    1.000
    N788     N        0.23153    0.39324    0.06178    1.000
    N789     N        0.19046    0.37232    0.06348    1.000
    N790     N        0.21175    0.41165    0.07428    1.000
    N791     N        0.17011    0.35141    0.06123    1.000
    C523     C        0.15189    0.34725    0.03908    1.000
    H523     H        0.15110    0.35820    0.02260    1.000
    C524     C        0.18733    0.39864    0.07490    1.000
    H524     H        0.17050    0.40620    0.08200    1.000
    C525     C        0.16405    0.33133    0.08128    1.000
    H525     H        0.17320    0.32930    0.09870    1.000
    C526     C        0.10769    0.24719    0.00752    1.000
    H526     H        0.10080    0.24970    0.98910    1.000
    C527     C        0.14464    0.18355    0.99666    1.000
    H527     H        0.16300    0.19020    0.99970    1.000
    C528     C        0.21810    0.36991    0.05521    1.000
    H528     H        0.22610    0.35420    0.04630    1.000
    N792     N        0.11856    0.22271    0.01815    1.000
    Cu133    Cu       0.62669    0.77951    0.08720    1.000
    Cu134    Cu       0.60004    0.80795    0.02457    1.000
    N793     N        0.60846    0.76647    0.02719    1.000
    N794     N        0.62086    0.75452    0.05120    1.000
    N795     N        0.64342    0.81541    0.07193    1.000
    N796     N        0.63591    0.82553    0.04486    1.000
    N797     N        0.60839    0.65799    0.98323    1.000
    N798     N        0.63795    0.65967    0.98427    1.000
    C529     C        0.59820    0.68064    0.99564    1.000
    H529     H        0.57900    0.68480    0.99810    1.000
    N799     N        0.62040    0.69704    0.00431    1.000
    C530     C        0.62679    0.72806    0.04550    1.000
    H530     H        0.63520    0.71510    0.05790    1.000
    N800     N        0.73153    0.89324    0.06178    1.000
    N801     N        0.69046    0.87232    0.06348    1.000
    N802     N        0.71175    0.91165    0.07428    1.000
    N803     N        0.67011    0.85141    0.06123    1.000
    C531     C        0.65189    0.84725    0.03908    1.000
    H531     H        0.65110    0.85820    0.02260    1.000
    C532     C        0.68733    0.89864    0.07490    1.000
    H532     H        0.67050    0.90620    0.08200    1.000
    C533     C        0.66405    0.83133    0.08128    1.000
    H533     H        0.67320    0.82930    0.09870    1.000
    C534     C        0.60769    0.74719    0.00752    1.000
    H534     H        0.60080    0.74970    0.98910    1.000
    C535     C        0.64464    0.68355    0.99666    1.000
    H535     H        0.66300    0.69020    0.99970    1.000
    C536     C        0.71810    0.86991    0.05521    1.000
    H536     H        0.72610    0.85420    0.04630    1.000
    N804     N        0.61856    0.72271    0.01815    1.000
    Cu135    Cu       0.62669    0.27951    0.58720    1.000
    Cu136    Cu       0.60004    0.30795    0.52457    1.000
    N805     N        0.60846    0.26647    0.52719    1.000
    N806     N        0.62086    0.25452    0.55120    1.000
    N807     N        0.64342    0.31541    0.57193    1.000
    N808     N        0.63591    0.32553    0.54486    1.000
    N809     N        0.60839    0.15799    0.48323    1.000
    N810     N        0.63795    0.15967    0.48427    1.000
    C537     C        0.59820    0.18064    0.49564    1.000
    H537     H        0.57900    0.18480    0.49810    1.000
    N811     N        0.62040    0.19704    0.50431    1.000
    C538     C        0.62679    0.22806    0.54550    1.000
    H538     H        0.63520    0.21510    0.55790    1.000
    N812     N        0.73153    0.39324    0.56178    1.000
    N813     N        0.69046    0.37232    0.56348    1.000
    N814     N        0.71175    0.41165    0.57428    1.000
    N815     N        0.67011    0.35141    0.56123    1.000
    C539     C        0.65189    0.34725    0.53908    1.000
    H539     H        0.65110    0.35820    0.52260    1.000
    C540     C        0.68733    0.39864    0.57490    1.000
    H540     H        0.67050    0.40620    0.58200    1.000
    C541     C        0.66405    0.33133    0.58128    1.000
    H541     H        0.67320    0.32930    0.59870    1.000
    C542     C        0.60769    0.24719    0.50752    1.000
    H542     H        0.60080    0.24970    0.48910    1.000
    C543     C        0.64464    0.18355    0.49666    1.000
    H543     H        0.66300    0.19020    0.49970    1.000
    C544     C        0.71810    0.36991    0.55521    1.000
    H544     H        0.72610    0.35420    0.54630    1.000
    N816     N        0.61856    0.22271    0.51815    1.000
    Cu137    Cu       0.62331    0.27951    0.66280    1.000
    Cu138    Cu       0.64996    0.30795    0.72543    1.000
    N817     N        0.64154    0.26647    0.72281    1.000
    N818     N        0.62914    0.25452    0.69880    1.000
    N819     N        0.60658    0.31541    0.67807    1.000
    N820     N        0.61409    0.32553    0.70514    1.000
    N821     N        0.64161    0.15799    0.76677    1.000
    N822     N        0.61205    0.15967    0.76573    1.000
    C545     C        0.65180    0.18064    0.75436    1.000
    H545     H        0.67100    0.18480    0.75190    1.000
    N823     N        0.62960    0.19704    0.74569    1.000
    C546     C        0.62321    0.22806    0.70450    1.000
    H546     H        0.61480    0.21510    0.69210    1.000
    N824     N        0.51847    0.39324    0.68822    1.000
    N825     N        0.55954    0.37232    0.68652    1.000
    N826     N        0.53825    0.41165    0.67572    1.000
    N827     N        0.57989    0.35141    0.68877    1.000
    C547     C        0.59811    0.34725    0.71092    1.000
    H547     H        0.59890    0.35820    0.72740    1.000
    C548     C        0.56267    0.39864    0.67510    1.000
    H548     H        0.57950    0.40620    0.66800    1.000
    C549     C        0.58595    0.33133    0.66872    1.000
    H549     H        0.57680    0.32930    0.65130    1.000
    C550     C        0.64231    0.24719    0.74248    1.000
    H550     H        0.64920    0.24970    0.76090    1.000
    C551     C        0.60536    0.18355    0.75334    1.000
    H551     H        0.58700    0.19020    0.75030    1.000
    C552     C        0.53190    0.36991    0.69479    1.000
    H552     H        0.52390    0.35420    0.70370    1.000
    N828     N        0.63144    0.22271    0.73185    1.000
    Cu139    Cu       0.62331    0.77951    0.16280    1.000
    Cu140    Cu       0.64996    0.80795    0.22543    1.000
    N829     N        0.64154    0.76647    0.22281    1.000
    N830     N        0.62914    0.75452    0.19880    1.000
    N831     N        0.60658    0.81541    0.17807    1.000
    N832     N        0.61409    0.82553    0.20514    1.000
    N833     N        0.64161    0.65799    0.26677    1.000
    N834     N        0.61205    0.65967    0.26573    1.000
    C553     C        0.65180    0.68064    0.25436    1.000
    H553     H        0.67100    0.68480    0.25190    1.000
    N835     N        0.62960    0.69704    0.24569    1.000
    C554     C        0.62321    0.72806    0.20450    1.000
    H554     H        0.61480    0.71510    0.19210    1.000
    N836     N        0.51847    0.89324    0.18822    1.000
    N837     N        0.55954    0.87232    0.18652    1.000
    N838     N        0.53825    0.91165    0.17572    1.000
    N839     N        0.57989    0.85141    0.18877    1.000
    C555     C        0.59811    0.84725    0.21092    1.000
    H555     H        0.59890    0.85820    0.22740    1.000
    C556     C        0.56267    0.89864    0.17510    1.000
    H556     H        0.57950    0.90620    0.16800    1.000
    C557     C        0.58595    0.83133    0.16872    1.000
    H557     H        0.57680    0.82930    0.15130    1.000
    C558     C        0.64231    0.74719    0.24248    1.000
    H558     H        0.64920    0.74970    0.26090    1.000
    C559     C        0.60536    0.68355    0.25334    1.000
    H559     H        0.58700    0.69020    0.25030    1.000
    C560     C        0.53190    0.86991    0.19479    1.000
    H560     H        0.52390    0.85420    0.20370    1.000
    N840     N        0.63144    0.72271    0.23185    1.000
    Cu141    Cu       0.12331    0.27951    0.16280    1.000
    Cu142    Cu       0.14996    0.30795    0.22543    1.000
    N841     N        0.14154    0.26647    0.22281    1.000
    N842     N        0.12914    0.25452    0.19880    1.000
    N843     N        0.10658    0.31541    0.17807    1.000
    N844     N        0.11409    0.32553    0.20514    1.000
    N845     N        0.14161    0.15799    0.26677    1.000
    N846     N        0.11205    0.15967    0.26573    1.000
    C561     C        0.15180    0.18064    0.25436    1.000
    H561     H        0.17100    0.18480    0.25190    1.000
    N847     N        0.12960    0.19704    0.24569    1.000
    C562     C        0.12321    0.22806    0.20450    1.000
    H562     H        0.11480    0.21510    0.19210    1.000
    N848     N        0.01847    0.39324    0.18822    1.000
    N849     N        0.05954    0.37232    0.18652    1.000
    N850     N        0.03825    0.41165    0.17572    1.000
    N851     N        0.07989    0.35141    0.18877    1.000
    C563     C        0.09811    0.34725    0.21092    1.000
    H563     H        0.09890    0.35820    0.22740    1.000
    C564     C        0.06267    0.39864    0.17510    1.000
    H564     H        0.07950    0.40620    0.16800    1.000
    C565     C        0.08595    0.33133    0.16872    1.000
    H565     H        0.07680    0.32930    0.15130    1.000
    C566     C        0.14231    0.24719    0.24248    1.000
    H566     H        0.14920    0.24970    0.26090    1.000
    C567     C        0.10536    0.18355    0.25334    1.000
    H567     H        0.08700    0.19020    0.25030    1.000
    C568     C        0.03190    0.36991    0.19479    1.000
    H568     H        0.02390    0.35420    0.20370    1.000
    N852     N        0.13144    0.22271    0.23185    1.000
    Cu143    Cu       0.12331    0.77951    0.66280    1.000
    Cu144    Cu       0.14996    0.80795    0.72543    1.000
    N853     N        0.14154    0.76647    0.72281    1.000
    N854     N        0.12914    0.75452    0.69880    1.000
    N855     N        0.10658    0.81541    0.67807    1.000
    N856     N        0.11409    0.82553    0.70514    1.000
    N857     N        0.14161    0.65799    0.76677    1.000
    N858     N        0.11205    0.65967    0.76573    1.000
    C569     C        0.15180    0.68064    0.75436    1.000
    H569     H        0.17100    0.68480    0.75190    1.000
    N859     N        0.12960    0.69704    0.74569    1.000
    C570     C        0.12321    0.72806    0.70450    1.000
    H570     H        0.11480    0.71510    0.69210    1.000
    N860     N        0.01847    0.89324    0.68822    1.000
    N861     N        0.05954    0.87232    0.68652    1.000
    N862     N        0.03825    0.91165    0.67572    1.000
    N863     N        0.07989    0.85141    0.68877    1.000
    C571     C        0.09811    0.84725    0.71092    1.000
    H571     H        0.09890    0.85820    0.72740    1.000
    C572     C        0.06267    0.89864    0.67510    1.000
    H572     H        0.07950    0.90620    0.66800    1.000
    C573     C        0.08595    0.83133    0.66872    1.000
    H573     H        0.07680    0.82930    0.65130    1.000
    C574     C        0.14231    0.74719    0.74248    1.000
    H574     H        0.14920    0.74970    0.76090    1.000
    C575     C        0.10536    0.68355    0.75334    1.000
    H575     H        0.08700    0.69020    0.75030    1.000
    C576     C        0.03190    0.86991    0.69479    1.000
    H576     H        0.02390    0.85420    0.70370    1.000
    N864     N        0.13144    0.72271    0.73185    1.000
    Cu145    Cu       0.12331    0.97050    0.08720    1.000
    Cu146    Cu       0.14996    0.94205    0.02457    1.000
    N865     N        0.14154    0.98353    0.02719    1.000
    N866     N        0.12914    0.99548    0.05120    1.000
    N867     N        0.10658    0.93459    0.07193    1.000
    N868     N        0.11409    0.92447    0.04486    1.000
    N869     N        0.14161    0.09201    0.98323    1.000
    N870     N        0.11205    0.09033    0.98427    1.000
    C577     C        0.15180    0.06936    0.99564    1.000
    H577     H        0.17100    0.06520    0.99810    1.000
    N871     N        0.12960    0.05296    0.00431    1.000
    C578     C        0.12321    0.02194    0.04550    1.000
    H578     H        0.11480    0.03490    0.05790    1.000
    N872     N        0.01847    0.85676    0.06178    1.000
    N873     N        0.05954    0.87768    0.06348    1.000
    N874     N        0.03825    0.83835    0.07428    1.000
    N875     N        0.07989    0.89859    0.06123    1.000
    C579     C        0.09811    0.90275    0.03908    1.000
    H579     H        0.09890    0.89180    0.02260    1.000
    C580     C        0.06267    0.85136    0.07490    1.000
    H580     H        0.07950    0.84380    0.08200    1.000
    C581     C        0.08595    0.91867    0.08128    1.000
    H581     H        0.07680    0.92070    0.09870    1.000
    C582     C        0.14231    0.00281    0.00752    1.000
    H582     H        0.14920    0.00030    0.98910    1.000
    C583     C        0.10536    0.06645    0.99666    1.000
    H583     H        0.08700    0.05980    0.99970    1.000
    C584     C        0.03190    0.88009    0.05521    1.000
    H584     H        0.02390    0.89580    0.04630    1.000
    N876     N        0.13144    0.02729    0.01815    1.000
    Cu147    Cu       0.12331    0.47050    0.58720    1.000
    Cu148    Cu       0.14996    0.44205    0.52457    1.000
    N877     N        0.14154    0.48353    0.52719    1.000
    N878     N        0.12914    0.49548    0.55120    1.000
    N879     N        0.10658    0.43459    0.57193    1.000
    N880     N        0.11409    0.42447    0.54486    1.000
    N881     N        0.14161    0.59201    0.48323    1.000
    N882     N        0.11205    0.59033    0.48427    1.000
    C585     C        0.15180    0.56936    0.49564    1.000
    H585     H        0.17100    0.56520    0.49810    1.000
    N883     N        0.12960    0.55296    0.50431    1.000
    C586     C        0.12321    0.52194    0.54550    1.000
    H586     H        0.11480    0.53490    0.55790    1.000
    N884     N        0.01847    0.35676    0.56178    1.000
    N885     N        0.05954    0.37768    0.56348    1.000
    N886     N        0.03825    0.33835    0.57428    1.000
    N887     N        0.07989    0.39859    0.56123    1.000
    C587     C        0.09811    0.40275    0.53908    1.000
    H587     H        0.09890    0.39180    0.52260    1.000
    C588     C        0.06267    0.35136    0.57490    1.000
    H588     H        0.07950    0.34380    0.58200    1.000
    C589     C        0.08595    0.41867    0.58128    1.000
    H589     H        0.07680    0.42070    0.59870    1.000
    C590     C        0.14231    0.50281    0.50752    1.000
    H590     H        0.14920    0.50030    0.48910    1.000
    C591     C        0.10536    0.56645    0.49666    1.000
    H591     H        0.08700    0.55980    0.49970    1.000
    C592     C        0.03190    0.38009    0.55521    1.000
    H592     H        0.02390    0.39580    0.54630    1.000
    N888     N        0.13144    0.52729    0.51815    1.000
    Cu149    Cu       0.62331    0.97050    0.58720    1.000
    Cu150    Cu       0.64996    0.94205    0.52457    1.000
    N889     N        0.64154    0.98353    0.52719    1.000
    N890     N        0.62914    0.99548    0.55120    1.000
    N891     N        0.60658    0.93459    0.57193    1.000
    N892     N        0.61409    0.92447    0.54486    1.000
    N893     N        0.64161    0.09201    0.48323    1.000
    N894     N        0.61205    0.09033    0.48427    1.000
    C593     C        0.65180    0.06936    0.49564    1.000
    H593     H        0.67100    0.06520    0.49810    1.000
    N895     N        0.62960    0.05296    0.50431    1.000
    C594     C        0.62321    0.02194    0.54550    1.000
    H594     H        0.61480    0.03490    0.55790    1.000
    N896     N        0.51847    0.85676    0.56178    1.000
    N897     N        0.55954    0.87768    0.56348    1.000
    N898     N        0.53825    0.83835    0.57428    1.000
    N899     N        0.57989    0.89859    0.56123    1.000
    C595     C        0.59811    0.90275    0.53908    1.000
    H595     H        0.59890    0.89180    0.52260    1.000
    C596     C        0.56267    0.85136    0.57490    1.000
    H596     H        0.57950    0.84380    0.58200    1.000
    C597     C        0.58595    0.91867    0.58128    1.000
    H597     H        0.57680    0.92070    0.59870    1.000
    C598     C        0.64231    0.00281    0.50752    1.000
    H598     H        0.64920    0.00030    0.48910    1.000
    C599     C        0.60536    0.06645    0.49666    1.000
    H599     H        0.58700    0.05980    0.49970    1.000
    C600     C        0.53190    0.88009    0.55521    1.000
    H600     H        0.52390    0.89580    0.54630    1.000
    N900     N        0.63144    0.02729    0.51815    1.000
    Cu151    Cu       0.62331    0.47050    0.08720    1.000
    Cu152    Cu       0.64996    0.44205    0.02457    1.000
    N901     N        0.64154    0.48353    0.02719    1.000
    N902     N        0.62914    0.49548    0.05120    1.000
    N903     N        0.60658    0.43459    0.07193    1.000
    N904     N        0.61409    0.42447    0.04486    1.000
    N905     N        0.64161    0.59201    0.98323    1.000
    N906     N        0.61205    0.59033    0.98427    1.000
    C601     C        0.65180    0.56936    0.99564    1.000
    H601     H        0.67100    0.56520    0.99810    1.000
    N907     N        0.62960    0.55296    0.00431    1.000
    C602     C        0.62321    0.52194    0.04550    1.000
    H602     H        0.61480    0.53490    0.05790    1.000
    N908     N        0.51847    0.35676    0.06178    1.000
    N909     N        0.55954    0.37768    0.06348    1.000
    N910     N        0.53825    0.33835    0.07428    1.000
    N911     N        0.57989    0.39859    0.06123    1.000
    C603     C        0.59811    0.40275    0.03908    1.000
    H603     H        0.59890    0.39180    0.02260    1.000
    C604     C        0.56267    0.35136    0.07490    1.000
    H604     H        0.57950    0.34380    0.08200    1.000
    C605     C        0.58595    0.41867    0.08128    1.000
    H605     H        0.57680    0.42070    0.09870    1.000
    C606     C        0.64231    0.50281    0.00752    1.000
    H606     H        0.64920    0.50030    0.98910    1.000
    C607     C        0.60536    0.56645    0.99666    1.000
    H607     H        0.58700    0.55980    0.99970    1.000
    C608     C        0.53190    0.38009    0.05521    1.000
    H608     H        0.52390    0.39580    0.04630    1.000
    N912     N        0.63144    0.52729    0.01815    1.000
    Cu153    Cu       0.62669    0.47050    0.16280    1.000
    Cu154    Cu       0.60004    0.44205    0.22543    1.000
    N913     N        0.60846    0.48353    0.22281    1.000
    N914     N        0.62086    0.49548    0.19880    1.000
    N915     N        0.64342    0.43459    0.17807    1.000
    N916     N        0.63591    0.42447    0.20514    1.000
    N917     N        0.60839    0.59201    0.26677    1.000
    N918     N        0.63795    0.59033    0.26573    1.000
    C609     C        0.59820    0.56936    0.25436    1.000
    H609     H        0.57900    0.56520    0.25190    1.000
    N919     N        0.62040    0.55296    0.24569    1.000
    C610     C        0.62679    0.52194    0.20450    1.000
    H610     H        0.63520    0.53490    0.19210    1.000
    N920     N        0.73153    0.35676    0.18822    1.000
    N921     N        0.69046    0.37768    0.18652    1.000
    N922     N        0.71175    0.33835    0.17572    1.000
    N923     N        0.67011    0.39859    0.18877    1.000
    C611     C        0.65189    0.40275    0.21092    1.000
    H611     H        0.65110    0.39180    0.22740    1.000
    C612     C        0.68733    0.35136    0.17510    1.000
    H612     H        0.67050    0.34380    0.16800    1.000
    C613     C        0.66405    0.41867    0.16872    1.000
    H613     H        0.67320    0.42070    0.15130    1.000
    C614     C        0.60769    0.50281    0.24248    1.000
    H614     H        0.60080    0.50030    0.26090    1.000
    C615     C        0.64464    0.56645    0.25334    1.000
    H615     H        0.66300    0.55980    0.25030    1.000
    C616     C        0.71810    0.38009    0.19479    1.000
    H616     H        0.72610    0.39580    0.20370    1.000
    N924     N        0.61856    0.52729    0.23185    1.000
    Cu155    Cu       0.62669    0.97050    0.66280    1.000
    Cu156    Cu       0.60004    0.94205    0.72543    1.000
    N925     N        0.60846    0.98353    0.72281    1.000
    N926     N        0.62086    0.99548    0.69880    1.000
    N927     N        0.64342    0.93459    0.67807    1.000
    N928     N        0.63591    0.92447    0.70514    1.000
    N929     N        0.60839    0.09201    0.76677    1.000
    N930     N        0.63795    0.09033    0.76573    1.000
    C617     C        0.59820    0.06936    0.75436    1.000
    H617     H        0.57900    0.06520    0.75190    1.000
    N931     N        0.62040    0.05296    0.74569    1.000
    C618     C        0.62679    0.02194    0.70450    1.000
    H618     H        0.63520    0.03490    0.69210    1.000
    N932     N        0.73153    0.85676    0.68822    1.000
    N933     N        0.69046    0.87768    0.68652    1.000
    N934     N        0.71175    0.83835    0.67572    1.000
    N935     N        0.67011    0.89859    0.68877    1.000
    C619     C        0.65189    0.90275    0.71092    1.000
    H619     H        0.65110    0.89180    0.72740    1.000
    C620     C        0.68733    0.85136    0.67510    1.000
    H620     H        0.67050    0.84380    0.66800    1.000
    C621     C        0.66405    0.91867    0.66872    1.000
    H621     H        0.67320    0.92070    0.65130    1.000
    C622     C        0.60769    0.00281    0.74248    1.000
    H622     H        0.60080    0.00030    0.76090    1.000
    C623     C        0.64464    0.06645    0.75334    1.000
    H623     H        0.66300    0.05980    0.75030    1.000
    C624     C        0.71810    0.88009    0.69479    1.000
    H624     H        0.72610    0.89580    0.70370    1.000
    N936     N        0.61856    0.02729    0.73185    1.000
    Cu157    Cu       0.12669    0.47050    0.66280    1.000
    Cu158    Cu       0.10004    0.44205    0.72543    1.000
    N937     N        0.10846    0.48353    0.72281    1.000
    N938     N        0.12086    0.49548    0.69880    1.000
    N939     N        0.14342    0.43459    0.67807    1.000
    N940     N        0.13591    0.42447    0.70514    1.000
    N941     N        0.10839    0.59201    0.76677    1.000
    N942     N        0.13795    0.59033    0.76573    1.000
    C625     C        0.09820    0.56936    0.75436    1.000
    H625     H        0.07900    0.56520    0.75190    1.000
    N943     N        0.12040    0.55296    0.74569    1.000
    C626     C        0.12679    0.52194    0.70450    1.000
    H626     H        0.13520    0.53490    0.69210    1.000
    N944     N        0.23153    0.35676    0.68822    1.000
    N945     N        0.19046    0.37768    0.68652    1.000
    N946     N        0.21175    0.33835    0.67572    1.000
    N947     N        0.17011    0.39859    0.68877    1.000
    C627     C        0.15189    0.40275    0.71092    1.000
    H627     H        0.15110    0.39180    0.72740    1.000
    C628     C        0.18733    0.35136    0.67510    1.000
    H628     H        0.17050    0.34380    0.66800    1.000
    C629     C        0.16405    0.41867    0.66872    1.000
    H629     H        0.17320    0.42070    0.65130    1.000
    C630     C        0.10769    0.50281    0.74248    1.000
    H630     H        0.10080    0.50030    0.76090    1.000
    C631     C        0.14464    0.56645    0.75334    1.000
    H631     H        0.16300    0.55980    0.75030    1.000
    C632     C        0.21810    0.38009    0.69479    1.000
    H632     H        0.22610    0.39580    0.70370    1.000
    N948     N        0.11856    0.52729    0.73185    1.000
    Cu159    Cu       0.12669    0.97050    0.16280    1.000
    Cu160    Cu       0.10004    0.94205    0.22543    1.000
    N949     N        0.10846    0.98353    0.22281    1.000
    N950     N        0.12086    0.99548    0.19880    1.000
    N951     N        0.14342    0.93459    0.17807    1.000
    N952     N        0.13591    0.92447    0.20514    1.000
    N953     N        0.10839    0.09201    0.26677    1.000
    N954     N        0.13795    0.09033    0.26573    1.000
    C633     C        0.09820    0.06936    0.25436    1.000
    H633     H        0.07900    0.06520    0.25190    1.000
    N955     N        0.12040    0.05296    0.24569    1.000
    C634     C        0.12679    0.02194    0.20450    1.000
    H634     H        0.13520    0.03490    0.19210    1.000
    N956     N        0.23153    0.85676    0.18822    1.000
    N957     N        0.19046    0.87768    0.18652    1.000
    N958     N        0.21175    0.83835    0.17572    1.000
    N959     N        0.17011    0.89859    0.18877    1.000
    C635     C        0.15189    0.90275    0.21092    1.000
    H635     H        0.15110    0.89180    0.22740    1.000
    C636     C        0.18733    0.85136    0.17510    1.000
    H636     H        0.17050    0.84380    0.16800    1.000
    C637     C        0.16405    0.91867    0.16872    1.000
    H637     H        0.17320    0.92070    0.15130    1.000
    C638     C        0.10769    0.00281    0.24248    1.000
    H638     H        0.10080    0.00030    0.26090    1.000
    C639     C        0.14464    0.06645    0.25334    1.000
    H639     H        0.16300    0.05980    0.25030    1.000
    C640     C        0.21810    0.88009    0.19479    1.000
    H640     H        0.22610    0.89580    0.20370    1.000
    N960     N        0.11856    0.02729    0.23185    1.000
    Cu161    Cu       0.27951    0.66280    0.62331    1.000
    Cu162    Cu       0.30795    0.72543    0.64996    1.000
    N961     N        0.26647    0.72281    0.64154    1.000
    N962     N        0.25452    0.69880    0.62914    1.000
    N963     N        0.31541    0.67807    0.60658    1.000
    N964     N        0.32553    0.70514    0.61409    1.000
    N965     N        0.15799    0.76677    0.64161    1.000
    N966     N        0.15967    0.76573    0.61205    1.000
    C641     C        0.18064    0.75436    0.65180    1.000
    H641     H        0.18480    0.75190    0.67100    1.000
    N967     N        0.19704    0.74569    0.62960    1.000
    C642     C        0.22806    0.70450    0.62321    1.000
    H642     H        0.21510    0.69210    0.61480    1.000
    N968     N        0.39324    0.68822    0.51847    1.000
    N969     N        0.37232    0.68652    0.55954    1.000
    N970     N        0.41165    0.67572    0.53825    1.000
    N971     N        0.35141    0.68877    0.57989    1.000
    C643     C        0.34725    0.71092    0.59811    1.000
    H643     H        0.35820    0.72740    0.59890    1.000
    C644     C        0.39864    0.67510    0.56267    1.000
    H644     H        0.40620    0.66800    0.57950    1.000
    C645     C        0.33133    0.66872    0.58595    1.000
    H645     H        0.32930    0.65130    0.57680    1.000
    C646     C        0.24719    0.74248    0.64231    1.000
    H646     H        0.24970    0.76090    0.64920    1.000
    C647     C        0.18355    0.75334    0.60536    1.000
    H647     H        0.19020    0.75030    0.58700    1.000
    C648     C        0.36991    0.69479    0.53190    1.000
    H648     H        0.35420    0.70370    0.52390    1.000
    N972     N        0.22271    0.73185    0.63144    1.000
    Cu163    Cu       0.27951    0.16280    0.12331    1.000
    Cu164    Cu       0.30795    0.22543    0.14996    1.000
    N973     N        0.26647    0.22281    0.14154    1.000
    N974     N        0.25452    0.19880    0.12914    1.000
    N975     N        0.31541    0.17807    0.10658    1.000
    N976     N        0.32553    0.20514    0.11409    1.000
    N977     N        0.15799    0.26677    0.14161    1.000
    N978     N        0.15967    0.26573    0.11205    1.000
    C649     C        0.18064    0.25436    0.15180    1.000
    H649     H        0.18480    0.25190    0.17100    1.000
    N979     N        0.19704    0.24569    0.12960    1.000
    C650     C        0.22806    0.20450    0.12321    1.000
    H650     H        0.21510    0.19210    0.11480    1.000
    N980     N        0.39324    0.18822    0.01847    1.000
    N981     N        0.37232    0.18652    0.05954    1.000
    N982     N        0.41165    0.17572    0.03825    1.000
    N983     N        0.35141    0.18877    0.07989    1.000
    C651     C        0.34725    0.21092    0.09811    1.000
    H651     H        0.35820    0.22740    0.09890    1.000
    C652     C        0.39864    0.17510    0.06267    1.000
    H652     H        0.40620    0.16800    0.07950    1.000
    C653     C        0.33133    0.16872    0.08595    1.000
    H653     H        0.32930    0.15130    0.07680    1.000
    C654     C        0.24719    0.24248    0.14231    1.000
    H654     H        0.24970    0.26090    0.14920    1.000
    C655     C        0.18355    0.25334    0.10536    1.000
    H655     H        0.19020    0.25030    0.08700    1.000
    C656     C        0.36991    0.19479    0.03190    1.000
    H656     H        0.35420    0.20370    0.02390    1.000
    N984     N        0.22271    0.23185    0.13144    1.000
    Cu165    Cu       0.77951    0.66280    0.12331    1.000
    Cu166    Cu       0.80795    0.72543    0.14996    1.000
    N985     N        0.76647    0.72281    0.14154    1.000
    N986     N        0.75452    0.69880    0.12914    1.000
    N987     N        0.81541    0.67807    0.10658    1.000
    N988     N        0.82553    0.70514    0.11409    1.000
    N989     N        0.65799    0.76677    0.14161    1.000
    N990     N        0.65967    0.76573    0.11205    1.000
    C657     C        0.68064    0.75436    0.15180    1.000
    H657     H        0.68480    0.75190    0.17100    1.000
    N991     N        0.69704    0.74569    0.12960    1.000
    C658     C        0.72806    0.70450    0.12321    1.000
    H658     H        0.71510    0.69210    0.11480    1.000
    N992     N        0.89324    0.68822    0.01847    1.000
    N993     N        0.87232    0.68652    0.05954    1.000
    N994     N        0.91165    0.67572    0.03825    1.000
    N995     N        0.85141    0.68877    0.07989    1.000
    C659     C        0.84725    0.71092    0.09811    1.000
    H659     H        0.85820    0.72740    0.09890    1.000
    C660     C        0.89864    0.67510    0.06267    1.000
    H660     H        0.90620    0.66800    0.07950    1.000
    C661     C        0.83133    0.66872    0.08595    1.000
    H661     H        0.82930    0.65130    0.07680    1.000
    C662     C        0.74719    0.74248    0.14231    1.000
    H662     H        0.74970    0.76090    0.14920    1.000
    C663     C        0.68355    0.75334    0.10536    1.000
    H663     H        0.69020    0.75030    0.08700    1.000
    C664     C        0.86991    0.69479    0.03190    1.000
    H664     H        0.85420    0.70370    0.02390    1.000
    N996     N        0.72271    0.73185    0.13144    1.000
    Cu167    Cu       0.77951    0.16280    0.62331    1.000
    Cu168    Cu       0.80795    0.22543    0.64996    1.000
    N997     N        0.76647    0.22281    0.64154    1.000
    N998     N        0.75452    0.19880    0.62914    1.000
    N999     N        0.81541    0.17807    0.60658    1.000
    N1000    N        0.82553    0.20514    0.61409    1.000
    N1001    N        0.65799    0.26677    0.64161    1.000
    N1002    N        0.65967    0.26573    0.61205    1.000
    C665     C        0.68064    0.25436    0.65180    1.000
    H665     H        0.68480    0.25190    0.67100    1.000
    N1003    N        0.69704    0.24569    0.62960    1.000
    C666     C        0.72806    0.20450    0.62321    1.000
    H666     H        0.71510    0.19210    0.61480    1.000
    N1004    N        0.89324    0.18822    0.51847    1.000
    N1005    N        0.87232    0.18652    0.55954    1.000
    N1006    N        0.91165    0.17572    0.53825    1.000
    N1007    N        0.85141    0.18877    0.57989    1.000
    C667     C        0.84725    0.21092    0.59811    1.000
    H667     H        0.85820    0.22740    0.59890    1.000
    C668     C        0.89864    0.17510    0.56267    1.000
    H668     H        0.90620    0.16800    0.57950    1.000
    C669     C        0.83133    0.16872    0.58595    1.000
    H669     H        0.82930    0.15130    0.57680    1.000
    C670     C        0.74719    0.24248    0.64231    1.000
    H670     H        0.74970    0.26090    0.64920    1.000
    C671     C        0.68355    0.25334    0.60536    1.000
    H671     H        0.69020    0.25030    0.58700    1.000
    C672     C        0.86991    0.19479    0.53190    1.000
    H672     H        0.85420    0.20370    0.52390    1.000
    N1008    N        0.72271    0.23185    0.63144    1.000
    Cu169    Cu       0.77951    0.58720    0.12669    1.000
    Cu170    Cu       0.80795    0.52457    0.10004    1.000
    N1009    N        0.76647    0.52719    0.10846    1.000
    N1010    N        0.75452    0.55120    0.12086    1.000
    N1011    N        0.81541    0.57193    0.14342    1.000
    N1012    N        0.82553    0.54486    0.13591    1.000
    N1013    N        0.65799    0.48323    0.10839    1.000
    N1014    N        0.65967    0.48427    0.13795    1.000
    C673     C        0.68064    0.49564    0.09820    1.000
    H673     H        0.68480    0.49810    0.07900    1.000
    N1015    N        0.69704    0.50431    0.12040    1.000
    C674     C        0.72806    0.54550    0.12679    1.000
    H674     H        0.71510    0.55790    0.13520    1.000
    N1016    N        0.89324    0.56178    0.23153    1.000
    N1017    N        0.87232    0.56348    0.19046    1.000
    N1018    N        0.91165    0.57428    0.21175    1.000
    N1019    N        0.85141    0.56123    0.17011    1.000
    C675     C        0.84725    0.53908    0.15189    1.000
    H675     H        0.85820    0.52260    0.15110    1.000
    C676     C        0.89864    0.57490    0.18733    1.000
    H676     H        0.90620    0.58200    0.17050    1.000
    C677     C        0.83133    0.58128    0.16405    1.000
    H677     H        0.82930    0.59870    0.17320    1.000
    C678     C        0.74719    0.50752    0.10769    1.000
    H678     H        0.74970    0.48910    0.10080    1.000
    C679     C        0.68355    0.49666    0.14464    1.000
    H679     H        0.69020    0.49970    0.16300    1.000
    C680     C        0.86991    0.55521    0.21810    1.000
    H680     H        0.85420    0.54630    0.22610    1.000
    N1020    N        0.72271    0.51815    0.11856    1.000
    Cu171    Cu       0.77951    0.08720    0.62669    1.000
    Cu172    Cu       0.80795    0.02457    0.60004    1.000
    N1021    N        0.76647    0.02719    0.60846    1.000
    N1022    N        0.75452    0.05120    0.62086    1.000
    N1023    N        0.81541    0.07193    0.64342    1.000
    N1024    N        0.82553    0.04486    0.63591    1.000
    N1025    N        0.65799    0.98323    0.60839    1.000
    N1026    N        0.65967    0.98427    0.63795    1.000
    C681     C        0.68064    0.99564    0.59820    1.000
    H681     H        0.68480    0.99810    0.57900    1.000
    N1027    N        0.69704    0.00431    0.62040    1.000
    C682     C        0.72806    0.04550    0.62679    1.000
    H682     H        0.71510    0.05790    0.63520    1.000
    N1028    N        0.89324    0.06178    0.73153    1.000
    N1029    N        0.87232    0.06348    0.69046    1.000
    N1030    N        0.91165    0.07428    0.71175    1.000
    N1031    N        0.85141    0.06123    0.67011    1.000
    C683     C        0.84725    0.03908    0.65189    1.000
    H683     H        0.85820    0.02260    0.65110    1.000
    C684     C        0.89864    0.07490    0.68733    1.000
    H684     H        0.90620    0.08200    0.67050    1.000
    C685     C        0.83133    0.08128    0.66405    1.000
    H685     H        0.82930    0.09870    0.67320    1.000
    C686     C        0.74719    0.00752    0.60769    1.000
    H686     H        0.74970    0.98910    0.60080    1.000
    C687     C        0.68355    0.99666    0.64464    1.000
    H687     H        0.69020    0.99970    0.66300    1.000
    C688     C        0.86991    0.05521    0.71810    1.000
    H688     H        0.85420    0.04630    0.72610    1.000
    N1032    N        0.72271    0.01815    0.61856    1.000
    Cu173    Cu       0.27951    0.58720    0.62669    1.000
    Cu174    Cu       0.30795    0.52457    0.60004    1.000
    N1033    N        0.26647    0.52719    0.60846    1.000
    N1034    N        0.25452    0.55120    0.62086    1.000
    N1035    N        0.31541    0.57193    0.64342    1.000
    N1036    N        0.32553    0.54486    0.63591    1.000
    N1037    N        0.15799    0.48323    0.60839    1.000
    N1038    N        0.15967    0.48427    0.63795    1.000
    C689     C        0.18064    0.49564    0.59820    1.000
    H689     H        0.18480    0.49810    0.57900    1.000
    N1039    N        0.19704    0.50431    0.62040    1.000
    C690     C        0.22806    0.54550    0.62679    1.000
    H690     H        0.21510    0.55790    0.63520    1.000
    N1040    N        0.39324    0.56178    0.73153    1.000
    N1041    N        0.37232    0.56348    0.69046    1.000
    N1042    N        0.41165    0.57428    0.71175    1.000
    N1043    N        0.35141    0.56123    0.67011    1.000
    C691     C        0.34725    0.53908    0.65189    1.000
    H691     H        0.35820    0.52260    0.65110    1.000
    C692     C        0.39864    0.57490    0.68733    1.000
    H692     H        0.40620    0.58200    0.67050    1.000
    C693     C        0.33133    0.58128    0.66405    1.000
    H693     H        0.32930    0.59870    0.67320    1.000
    C694     C        0.24719    0.50752    0.60769    1.000
    H694     H        0.24970    0.48910    0.60080    1.000
    C695     C        0.18355    0.49666    0.64464    1.000
    H695     H        0.19020    0.49970    0.66300    1.000
    C696     C        0.36991    0.55521    0.71810    1.000
    H696     H        0.35420    0.54630    0.72610    1.000
    N1044    N        0.22271    0.51815    0.61856    1.000
    Cu175    Cu       0.27951    0.08720    0.12669    1.000
    Cu176    Cu       0.30795    0.02457    0.10004    1.000
    N1045    N        0.26647    0.02719    0.10846    1.000
    N1046    N        0.25452    0.05120    0.12086    1.000
    N1047    N        0.31541    0.07193    0.14342    1.000
    N1048    N        0.32553    0.04486    0.13591    1.000
    N1049    N        0.15799    0.98323    0.10839    1.000
    N1050    N        0.15967    0.98427    0.13795    1.000
    C697     C        0.18064    0.99564    0.09820    1.000
    H697     H        0.18480    0.99810    0.07900    1.000
    N1051    N        0.19704    0.00431    0.12040    1.000
    C698     C        0.22806    0.04550    0.12679    1.000
    H698     H        0.21510    0.05790    0.13520    1.000
    N1052    N        0.39324    0.06178    0.23153    1.000
    N1053    N        0.37232    0.06348    0.19046    1.000
    N1054    N        0.41165    0.07428    0.21175    1.000
    N1055    N        0.35141    0.06123    0.17011    1.000
    C699     C        0.34725    0.03908    0.15189    1.000
    H699     H        0.35820    0.02260    0.15110    1.000
    C700     C        0.39864    0.07490    0.18733    1.000
    H700     H        0.40620    0.08200    0.17050    1.000
    C701     C        0.33133    0.08128    0.16405    1.000
    H701     H        0.32930    0.09870    0.17320    1.000
    C702     C        0.24719    0.00752    0.10769    1.000
    H702     H        0.24970    0.98910    0.10080    1.000
    C703     C        0.18355    0.99666    0.14464    1.000
    H703     H        0.19020    0.99970    0.16300    1.000
    C704     C        0.36991    0.05521    0.21810    1.000
    H704     H        0.35420    0.04630    0.22610    1.000
    N1056    N        0.22271    0.01815    0.11856    1.000
    Cu177    Cu       0.47050    0.16280    0.62669    1.000
    Cu178    Cu       0.44205    0.22543    0.60004    1.000
    N1057    N        0.48353    0.22281    0.60846    1.000
    N1058    N        0.49548    0.19880    0.62086    1.000
    N1059    N        0.43459    0.17807    0.64342    1.000
    N1060    N        0.42447    0.20514    0.63591    1.000
    N1061    N        0.59201    0.26677    0.60839    1.000
    N1062    N        0.59033    0.26573    0.63795    1.000
    C705     C        0.56936    0.25436    0.59820    1.000
    H705     H        0.56520    0.25190    0.57900    1.000
    N1063    N        0.55296    0.24569    0.62040    1.000
    C706     C        0.52194    0.20450    0.62679    1.000
    H706     H        0.53490    0.19210    0.63520    1.000
    N1064    N        0.35676    0.18822    0.73153    1.000
    N1065    N        0.37768    0.18652    0.69046    1.000
    N1066    N        0.33835    0.17572    0.71175    1.000
    N1067    N        0.39859    0.18877    0.67011    1.000
    C707     C        0.40275    0.21092    0.65189    1.000
    H707     H        0.39180    0.22740    0.65110    1.000
    C708     C        0.35136    0.17510    0.68733    1.000
    H708     H        0.34380    0.16800    0.67050    1.000
    C709     C        0.41867    0.16872    0.66405    1.000
    H709     H        0.42070    0.15130    0.67320    1.000
    C710     C        0.50281    0.24248    0.60769    1.000
    H710     H        0.50030    0.26090    0.60080    1.000
    C711     C        0.56645    0.25334    0.64464    1.000
    H711     H        0.55980    0.25030    0.66300    1.000
    C712     C        0.38009    0.19479    0.71810    1.000
    H712     H        0.39580    0.20370    0.72610    1.000
    N1068    N        0.52729    0.23185    0.61856    1.000
    Cu179    Cu       0.47050    0.66280    0.12669    1.000
    Cu180    Cu       0.44205    0.72543    0.10004    1.000
    N1069    N        0.48353    0.72281    0.10846    1.000
    N1070    N        0.49548    0.69880    0.12086    1.000
    N1071    N        0.43459    0.67807    0.14342    1.000
    N1072    N        0.42447    0.70514    0.13591    1.000
    N1073    N        0.59201    0.76677    0.10839    1.000
    N1074    N        0.59033    0.76573    0.13795    1.000
    C713     C        0.56936    0.75436    0.09820    1.000
    H713     H        0.56520    0.75190    0.07900    1.000
    N1075    N        0.55296    0.74569    0.12040    1.000
    C714     C        0.52194    0.70450    0.12679    1.000
    H714     H        0.53490    0.69210    0.13520    1.000
    N1076    N        0.35676    0.68822    0.23153    1.000
    N1077    N        0.37768    0.68652    0.19046    1.000
    N1078    N        0.33835    0.67572    0.21175    1.000
    N1079    N        0.39859    0.68877    0.17011    1.000
    C715     C        0.40275    0.71092    0.15189    1.000
    H715     H        0.39180    0.72740    0.15110    1.000
    C716     C        0.35136    0.67510    0.18733    1.000
    H716     H        0.34380    0.66800    0.17050    1.000
    C717     C        0.41867    0.66872    0.16405    1.000
    H717     H        0.42070    0.65130    0.17320    1.000
    C718     C        0.50281    0.74248    0.10769    1.000
    H718     H        0.50030    0.76090    0.10080    1.000
    C719     C        0.56645    0.75334    0.14464    1.000
    H719     H        0.55980    0.75030    0.16300    1.000
    C720     C        0.38009    0.69479    0.21810    1.000
    H720     H        0.39580    0.70370    0.22610    1.000
    N1080    N        0.52729    0.73185    0.11856    1.000
    Cu181    Cu       0.97050    0.16280    0.12669    1.000
    Cu182    Cu       0.94205    0.22543    0.10004    1.000
    N1081    N        0.98353    0.22281    0.10846    1.000
    N1082    N        0.99548    0.19880    0.12086    1.000
    N1083    N        0.93459    0.17807    0.14342    1.000
    N1084    N        0.92447    0.20514    0.13591    1.000
    N1085    N        0.09201    0.26677    0.10839    1.000
    N1086    N        0.09033    0.26573    0.13795    1.000
    C721     C        0.06936    0.25436    0.09820    1.000
    H721     H        0.06520    0.25190    0.07900    1.000
    N1087    N        0.05296    0.24569    0.12040    1.000
    C722     C        0.02194    0.20450    0.12679    1.000
    H722     H        0.03490    0.19210    0.13520    1.000
    N1088    N        0.85676    0.18822    0.23153    1.000
    N1089    N        0.87768    0.18652    0.19046    1.000
    N1090    N        0.83835    0.17572    0.21175    1.000
    N1091    N        0.89859    0.18877    0.17011    1.000
    C723     C        0.90275    0.21092    0.15189    1.000
    H723     H        0.89180    0.22740    0.15110    1.000
    C724     C        0.85136    0.17510    0.18733    1.000
    H724     H        0.84380    0.16800    0.17050    1.000
    C725     C        0.91867    0.16872    0.16405    1.000
    H725     H        0.92070    0.15130    0.17320    1.000
    C726     C        0.00281    0.24248    0.10769    1.000
    H726     H        0.00030    0.26090    0.10080    1.000
    C727     C        0.06645    0.25334    0.14464    1.000
    H727     H        0.05980    0.25030    0.16300    1.000
    C728     C        0.88009    0.19479    0.21810    1.000
    H728     H        0.89580    0.20370    0.22610    1.000
    N1092    N        0.02729    0.23185    0.11856    1.000
    Cu183    Cu       0.97050    0.66280    0.62669    1.000
    Cu184    Cu       0.94205    0.72543    0.60004    1.000
    N1093    N        0.98353    0.72281    0.60846    1.000
    N1094    N        0.99548    0.69880    0.62086    1.000
    N1095    N        0.93459    0.67807    0.64342    1.000
    N1096    N        0.92447    0.70514    0.63591    1.000
    N1097    N        0.09201    0.76677    0.60839    1.000
    N1098    N        0.09033    0.76573    0.63795    1.000
    C729     C        0.06936    0.75436    0.59820    1.000
    H729     H        0.06520    0.75190    0.57900    1.000
    N1099    N        0.05296    0.74569    0.62040    1.000
    C730     C        0.02194    0.70450    0.62679    1.000
    H730     H        0.03490    0.69210    0.63520    1.000
    N1100    N        0.85676    0.68822    0.73153    1.000
    N1101    N        0.87768    0.68652    0.69046    1.000
    N1102    N        0.83835    0.67572    0.71175    1.000
    N1103    N        0.89859    0.68877    0.67011    1.000
    C731     C        0.90275    0.71092    0.65189    1.000
    H731     H        0.89180    0.72740    0.65110    1.000
    C732     C        0.85136    0.67510    0.68733    1.000
    H732     H        0.84380    0.66800    0.67050    1.000
    C733     C        0.91867    0.66872    0.66405    1.000
    H733     H        0.92070    0.65130    0.67320    1.000
    C734     C        0.00281    0.74248    0.60769    1.000
    H734     H        0.00030    0.76090    0.60080    1.000
    C735     C        0.06645    0.75334    0.64464    1.000
    H735     H        0.05980    0.75030    0.66300    1.000
    C736     C        0.88009    0.69479    0.71810    1.000
    H736     H        0.89580    0.70370    0.72610    1.000
    N1104    N        0.02729    0.73185    0.61856    1.000
    Cu185    Cu       0.97050    0.08720    0.12331    1.000
    Cu186    Cu       0.94205    0.02457    0.14996    1.000
    N1105    N        0.98353    0.02719    0.14154    1.000
    N1106    N        0.99548    0.05120    0.12914    1.000
    N1107    N        0.93459    0.07193    0.10658    1.000
    N1108    N        0.92447    0.04486    0.11409    1.000
    N1109    N        0.09201    0.98323    0.14161    1.000
    N1110    N        0.09033    0.98427    0.11205    1.000
    C737     C        0.06936    0.99564    0.15180    1.000
    H737     H        0.06520    0.99810    0.17100    1.000
    N1111    N        0.05296    0.00431    0.12960    1.000
    C738     C        0.02194    0.04550    0.12321    1.000
    H738     H        0.03490    0.05790    0.11480    1.000
    N1112    N        0.85676    0.06178    0.01847    1.000
    N1113    N        0.87768    0.06348    0.05954    1.000
    N1114    N        0.83835    0.07428    0.03825    1.000
    N1115    N        0.89859    0.06123    0.07989    1.000
    C739     C        0.90275    0.03908    0.09811    1.000
    H739     H        0.89180    0.02260    0.09890    1.000
    C740     C        0.85136    0.07490    0.06267    1.000
    H740     H        0.84380    0.08200    0.07950    1.000
    C741     C        0.91867    0.08128    0.08595    1.000
    H741     H        0.92070    0.09870    0.07680    1.000
    C742     C        0.00281    0.00752    0.14231    1.000
    H742     H        0.00030    0.98910    0.14920    1.000
    C743     C        0.06645    0.99666    0.10536    1.000
    H743     H        0.05980    0.99970    0.08700    1.000
    C744     C        0.88009    0.05521    0.03190    1.000
    H744     H        0.89580    0.04630    0.02390    1.000
    N1116    N        0.02729    0.01815    0.13144    1.000
    Cu187    Cu       0.97050    0.58720    0.62331    1.000
    Cu188    Cu       0.94205    0.52457    0.64996    1.000
    N1117    N        0.98353    0.52719    0.64154    1.000
    N1118    N        0.99548    0.55120    0.62914    1.000
    N1119    N        0.93459    0.57193    0.60658    1.000
    N1120    N        0.92447    0.54486    0.61409    1.000
    N1121    N        0.09201    0.48323    0.64161    1.000
    N1122    N        0.09033    0.48427    0.61205    1.000
    C745     C        0.06936    0.49564    0.65180    1.000
    H745     H        0.06520    0.49810    0.67100    1.000
    N1123    N        0.05296    0.50431    0.62960    1.000
    C746     C        0.02194    0.54550    0.62321    1.000
    H746     H        0.03490    0.55790    0.61480    1.000
    N1124    N        0.85676    0.56178    0.51847    1.000
    N1125    N        0.87768    0.56348    0.55954    1.000
    N1126    N        0.83835    0.57428    0.53825    1.000
    N1127    N        0.89859    0.56123    0.57989    1.000
    C747     C        0.90275    0.53908    0.59811    1.000
    H747     H        0.89180    0.52260    0.59890    1.000
    C748     C        0.85136    0.57490    0.56267    1.000
    H748     H        0.84380    0.58200    0.57950    1.000
    C749     C        0.91867    0.58128    0.58595    1.000
    H749     H        0.92070    0.59870    0.57680    1.000
    C750     C        0.00281    0.50752    0.64231    1.000
    H750     H        0.00030    0.48910    0.64920    1.000
    C751     C        0.06645    0.49666    0.60536    1.000
    H751     H        0.05980    0.49970    0.58700    1.000
    C752     C        0.88009    0.55521    0.53190    1.000
    H752     H        0.89580    0.54630    0.52390    1.000
    N1128    N        0.02729    0.51815    0.63144    1.000
    Cu189    Cu       0.47050    0.08720    0.62331    1.000
    Cu190    Cu       0.44205    0.02457    0.64996    1.000
    N1129    N        0.48353    0.02719    0.64154    1.000
    N1130    N        0.49548    0.05120    0.62914    1.000
    N1131    N        0.43459    0.07193    0.60658    1.000
    N1132    N        0.42447    0.04486    0.61409    1.000
    N1133    N        0.59201    0.98323    0.64161    1.000
    N1134    N        0.59033    0.98427    0.61205    1.000
    C753     C        0.56936    0.99564    0.65180    1.000
    H753     H        0.56520    0.99810    0.67100    1.000
    N1135    N        0.55296    0.00431    0.62960    1.000
    C754     C        0.52194    0.04550    0.62321    1.000
    H754     H        0.53490    0.05790    0.61480    1.000
    N1136    N        0.35676    0.06178    0.51847    1.000
    N1137    N        0.37768    0.06348    0.55954    1.000
    N1138    N        0.33835    0.07428    0.53825    1.000
    N1139    N        0.39859    0.06123    0.57989    1.000
    C755     C        0.40275    0.03908    0.59811    1.000
    H755     H        0.39180    0.02260    0.59890    1.000
    C756     C        0.35136    0.07490    0.56267    1.000
    H756     H        0.34380    0.08200    0.57950    1.000
    C757     C        0.41867    0.08128    0.58595    1.000
    H757     H        0.42070    0.09870    0.57680    1.000
    C758     C        0.50281    0.00752    0.64231    1.000
    H758     H        0.50030    0.98910    0.64920    1.000
    C759     C        0.56645    0.99666    0.60536    1.000
    H759     H        0.55980    0.99970    0.58700    1.000
    C760     C        0.38009    0.05521    0.53190    1.000
    H760     H        0.39580    0.04630    0.52390    1.000
    N1140    N        0.52729    0.01815    0.63144    1.000
    Cu191    Cu       0.47050    0.58720    0.12331    1.000
    Cu192    Cu       0.44205    0.52457    0.14996    1.000
    N1141    N        0.48353    0.52719    0.14154    1.000
    N1142    N        0.49548    0.55120    0.12914    1.000
    N1143    N        0.43459    0.57193    0.10658    1.000
    N1144    N        0.42447    0.54486    0.11409    1.000
    N1145    N        0.59201    0.48323    0.14161    1.000
    N1146    N        0.59033    0.48427    0.11205    1.000
    C761     C        0.56936    0.49564    0.15180    1.000
    H761     H        0.56520    0.49810    0.17100    1.000
    N1147    N        0.55296    0.50431    0.12960    1.000
    C762     C        0.52194    0.54550    0.12321    1.000
    H762     H        0.53490    0.55790    0.11480    1.000
    N1148    N        0.35676    0.56178    0.01847    1.000
    N1149    N        0.37768    0.56348    0.05954    1.000
    N1150    N        0.33835    0.57428    0.03825    1.000
    N1151    N        0.39859    0.56123    0.07989    1.000
    C763     C        0.40275    0.53908    0.09811    1.000
    H763     H        0.39180    0.52260    0.09890    1.000
    C764     C        0.35136    0.57490    0.06267    1.000
    H764     H        0.34380    0.58200    0.07950    1.000
    C765     C        0.41867    0.58128    0.08595    1.000
    H765     H        0.42070    0.59870    0.07680    1.000
    C766     C        0.50281    0.50752    0.14231    1.000
    H766     H        0.50030    0.48910    0.14920    1.000
    C767     C        0.56645    0.49666    0.10536    1.000
    H767     H        0.55980    0.49970    0.08700    1.000
    C768     C        0.38009    0.55521    0.03190    1.000
    H768     H        0.39580    0.54630    0.02390    1.000
    N1152    N        0.52729    0.51815    0.13144    1.000
    Cu193    Cu       0.62331    0.58720    0.47050    1.000
    Cu194    Cu       0.64996    0.52457    0.44205    1.000
    N1153    N        0.64154    0.52719    0.48353    1.000
    N1154    N        0.62914    0.55120    0.49548    1.000
    N1155    N        0.60658    0.57193    0.43459    1.000
    N1156    N        0.61409    0.54486    0.42447    1.000
    N1157    N        0.64161    0.48323    0.59201    1.000
    N1158    N        0.61205    0.48427    0.59033    1.000
    C769     C        0.65180    0.49564    0.56936    1.000
    H769     H        0.67100    0.49810    0.56520    1.000
    N1159    N        0.62960    0.50431    0.55296    1.000
    C770     C        0.62321    0.54550    0.52194    1.000
    H770     H        0.61480    0.55790    0.53490    1.000
    N1160    N        0.51847    0.56178    0.35676    1.000
    N1161    N        0.55954    0.56348    0.37768    1.000
    N1162    N        0.53825    0.57428    0.33835    1.000
    N1163    N        0.57989    0.56123    0.39859    1.000
    C771     C        0.59811    0.53908    0.40275    1.000
    H771     H        0.59890    0.52260    0.39180    1.000
    C772     C        0.56267    0.57490    0.35136    1.000
    H772     H        0.57950    0.58200    0.34380    1.000
    C773     C        0.58595    0.58128    0.41867    1.000
    H773     H        0.57680    0.59870    0.42070    1.000
    C774     C        0.64231    0.50752    0.50281    1.000
    H774     H        0.64920    0.48910    0.50030    1.000
    C775     C        0.60536    0.49666    0.56645    1.000
    H775     H        0.58700    0.49970    0.55980    1.000
    C776     C        0.53190    0.55521    0.38009    1.000
    H776     H        0.52390    0.54630    0.39580    1.000
    N1164    N        0.63144    0.51815    0.52729    1.000
    Cu195    Cu       0.62331    0.08720    0.97050    1.000
    Cu196    Cu       0.64996    0.02457    0.94205    1.000
    N1165    N        0.64154    0.02719    0.98353    1.000
    N1166    N        0.62914    0.05120    0.99548    1.000
    N1167    N        0.60658    0.07193    0.93459    1.000
    N1168    N        0.61409    0.04486    0.92447    1.000
    N1169    N        0.64161    0.98323    0.09201    1.000
    N1170    N        0.61205    0.98427    0.09033    1.000
    C777     C        0.65180    0.99564    0.06936    1.000
    H777     H        0.67100    0.99810    0.06520    1.000
    N1171    N        0.62960    0.00431    0.05296    1.000
    C778     C        0.62321    0.04550    0.02194    1.000
    H778     H        0.61480    0.05790    0.03490    1.000
    N1172    N        0.51847    0.06178    0.85676    1.000
    N1173    N        0.55954    0.06348    0.87768    1.000
    N1174    N        0.53825    0.07428    0.83835    1.000
    N1175    N        0.57989    0.06123    0.89859    1.000
    C779     C        0.59811    0.03908    0.90275    1.000
    H779     H        0.59890    0.02260    0.89180    1.000
    C780     C        0.56267    0.07490    0.85136    1.000
    H780     H        0.57950    0.08200    0.84380    1.000
    C781     C        0.58595    0.08128    0.91867    1.000
    H781     H        0.57680    0.09870    0.92070    1.000
    C782     C        0.64231    0.00752    0.00281    1.000
    H782     H        0.64920    0.98910    0.00030    1.000
    C783     C        0.60536    0.99666    0.06645    1.000
    H783     H        0.58700    0.99970    0.05980    1.000
    C784     C        0.53190    0.05521    0.88009    1.000
    H784     H        0.52390    0.04630    0.89580    1.000
    N1176    N        0.63144    0.01815    0.02729    1.000
    Cu197    Cu       0.12331    0.58720    0.97050    1.000
    Cu198    Cu       0.14996    0.52457    0.94205    1.000
    N1177    N        0.14154    0.52719    0.98353    1.000
    N1178    N        0.12914    0.55120    0.99548    1.000
    N1179    N        0.10658    0.57193    0.93459    1.000
    N1180    N        0.11409    0.54486    0.92447    1.000
    N1181    N        0.14161    0.48323    0.09201    1.000
    N1182    N        0.11205    0.48427    0.09033    1.000
    C785     C        0.15180    0.49564    0.06936    1.000
    H785     H        0.17100    0.49810    0.06520    1.000
    N1183    N        0.12960    0.50431    0.05296    1.000
    C786     C        0.12321    0.54550    0.02194    1.000
    H786     H        0.11480    0.55790    0.03490    1.000
    N1184    N        0.01847    0.56178    0.85676    1.000
    N1185    N        0.05954    0.56348    0.87768    1.000
    N1186    N        0.03825    0.57428    0.83835    1.000
    N1187    N        0.07989    0.56123    0.89859    1.000
    C787     C        0.09811    0.53908    0.90275    1.000
    H787     H        0.09890    0.52260    0.89180    1.000
    C788     C        0.06267    0.57490    0.85136    1.000
    H788     H        0.07950    0.58200    0.84380    1.000
    C789     C        0.08595    0.58128    0.91867    1.000
    H789     H        0.07680    0.59870    0.92070    1.000
    C790     C        0.14231    0.50752    0.00281    1.000
    H790     H        0.14920    0.48910    0.00030    1.000
    C791     C        0.10536    0.49666    0.06645    1.000
    H791     H        0.08700    0.49970    0.05980    1.000
    C792     C        0.03190    0.55521    0.88009    1.000
    H792     H        0.02390    0.54630    0.89580    1.000
    N1188    N        0.13144    0.51815    0.02729    1.000
    Cu199    Cu       0.12331    0.08720    0.47050    1.000
    Cu200    Cu       0.14996    0.02457    0.44205    1.000
    N1189    N        0.14154    0.02719    0.48353    1.000
    N1190    N        0.12914    0.05120    0.49548    1.000
    N1191    N        0.10658    0.07193    0.43459    1.000
    N1192    N        0.11409    0.04486    0.42447    1.000
    N1193    N        0.14161    0.98323    0.59201    1.000
    N1194    N        0.11205    0.98427    0.59033    1.000
    C793     C        0.15180    0.99564    0.56936    1.000
    H793     H        0.17100    0.99810    0.56520    1.000
    N1195    N        0.12960    0.00431    0.55296    1.000
    C794     C        0.12321    0.04550    0.52194    1.000
    H794     H        0.11480    0.05790    0.53490    1.000
    N1196    N        0.01847    0.06178    0.35676    1.000
    N1197    N        0.05954    0.06348    0.37768    1.000
    N1198    N        0.03825    0.07428    0.33835    1.000
    N1199    N        0.07989    0.06123    0.39859    1.000
    C795     C        0.09811    0.03908    0.40275    1.000
    H795     H        0.09890    0.02260    0.39180    1.000
    C796     C        0.06267    0.07490    0.35136    1.000
    H796     H        0.07950    0.08200    0.34380    1.000
    C797     C        0.08595    0.08128    0.41867    1.000
    H797     H        0.07680    0.09870    0.42070    1.000
    C798     C        0.14231    0.00752    0.50281    1.000
    H798     H        0.14920    0.98910    0.50030    1.000
    C799     C        0.10536    0.99666    0.56645    1.000
    H799     H        0.08700    0.99970    0.55980    1.000
    C800     C        0.03190    0.05521    0.38009    1.000
    H800     H        0.02390    0.04630    0.39580    1.000
    N1200    N        0.13144    0.01815    0.52729    1.000
    Cu201    Cu       0.12669    0.66280    0.97050    1.000
    Cu202    Cu       0.10004    0.72543    0.94205    1.000
    N1201    N        0.10846    0.72281    0.98353    1.000
    N1202    N        0.12086    0.69880    0.99548    1.000
    N1203    N        0.14342    0.67807    0.93459    1.000
    N1204    N        0.13591    0.70514    0.92447    1.000
    N1205    N        0.10839    0.76677    0.09201    1.000
    N1206    N        0.13795    0.76573    0.09033    1.000
    C801     C        0.09820    0.75436    0.06936    1.000
    H801     H        0.07900    0.75190    0.06520    1.000
    N1207    N        0.12040    0.74569    0.05296    1.000
    C802     C        0.12679    0.70450    0.02194    1.000
    H802     H        0.13520    0.69210    0.03490    1.000
    N1208    N        0.23153    0.68822    0.85676    1.000
    N1209    N        0.19046    0.68652    0.87768    1.000
    N1210    N        0.21175    0.67572    0.83835    1.000
    N1211    N        0.17011    0.68877    0.89859    1.000
    C803     C        0.15189    0.71092    0.90275    1.000
    H803     H        0.15110    0.72740    0.89180    1.000
    C804     C        0.18733    0.67510    0.85136    1.000
    H804     H        0.17050    0.66800    0.84380    1.000
    C805     C        0.16405    0.66872    0.91867    1.000
    H805     H        0.17320    0.65130    0.92070    1.000
    C806     C        0.10769    0.74248    0.00281    1.000
    H806     H        0.10080    0.76090    0.00030    1.000
    C807     C        0.14464    0.75334    0.06645    1.000
    H807     H        0.16300    0.75030    0.05980    1.000
    C808     C        0.21810    0.69479    0.88009    1.000
    H808     H        0.22610    0.70370    0.89580    1.000
    N1212    N        0.11856    0.73185    0.02729    1.000
    Cu203    Cu       0.12669    0.16280    0.47050    1.000
    Cu204    Cu       0.10004    0.22543    0.44205    1.000
    N1213    N        0.10846    0.22281    0.48353    1.000
    N1214    N        0.12086    0.19880    0.49548    1.000
    N1215    N        0.14342    0.17807    0.43459    1.000
    N1216    N        0.13591    0.20514    0.42447    1.000
    N1217    N        0.10839    0.26677    0.59201    1.000
    N1218    N        0.13795    0.26573    0.59033    1.000
    C809     C        0.09820    0.25436    0.56936    1.000
    H809     H        0.07900    0.25190    0.56520    1.000
    N1219    N        0.12040    0.24569    0.55296    1.000
    C810     C        0.12679    0.20450    0.52194    1.000
    H810     H        0.13520    0.19210    0.53490    1.000
    N1220    N        0.23153    0.18822    0.35676    1.000
    N1221    N        0.19046    0.18652    0.37768    1.000
    N1222    N        0.21175    0.17572    0.33835    1.000
    N1223    N        0.17011    0.18877    0.39859    1.000
    C811     C        0.15189    0.21092    0.40275    1.000
    H811     H        0.15110    0.22740    0.39180    1.000
    C812     C        0.18733    0.17510    0.35136    1.000
    H812     H        0.17050    0.16800    0.34380    1.000
    C813     C        0.16405    0.16872    0.41867    1.000
    H813     H        0.17320    0.15130    0.42070    1.000
    C814     C        0.10769    0.24248    0.50281    1.000
    H814     H        0.10080    0.26090    0.50030    1.000
    C815     C        0.14464    0.25334    0.56645    1.000
    H815     H        0.16300    0.25030    0.55980    1.000
    C816     C        0.21810    0.19479    0.38009    1.000
    H816     H        0.22610    0.20370    0.39580    1.000
    N1224    N        0.11856    0.23185    0.52729    1.000
    Cu205    Cu       0.62669    0.66280    0.47050    1.000
    Cu206    Cu       0.60004    0.72543    0.44205    1.000
    N1225    N        0.60846    0.72281    0.48353    1.000
    N1226    N        0.62086    0.69880    0.49548    1.000
    N1227    N        0.64342    0.67807    0.43459    1.000
    N1228    N        0.63591    0.70514    0.42447    1.000
    N1229    N        0.60839    0.76677    0.59201    1.000
    N1230    N        0.63795    0.76573    0.59033    1.000
    C817     C        0.59820    0.75436    0.56936    1.000
    H817     H        0.57900    0.75190    0.56520    1.000
    N1231    N        0.62040    0.74569    0.55296    1.000
    C818     C        0.62679    0.70450    0.52194    1.000
    H818     H        0.63520    0.69210    0.53490    1.000
    N1232    N        0.73153    0.68822    0.35676    1.000
    N1233    N        0.69046    0.68652    0.37768    1.000
    N1234    N        0.71175    0.67572    0.33835    1.000
    N1235    N        0.67011    0.68877    0.39859    1.000
    C819     C        0.65189    0.71092    0.40275    1.000
    H819     H        0.65110    0.72740    0.39180    1.000
    C820     C        0.68733    0.67510    0.35136    1.000
    H820     H        0.67050    0.66800    0.34380    1.000
    C821     C        0.66405    0.66872    0.41867    1.000
    H821     H        0.67320    0.65130    0.42070    1.000
    C822     C        0.60769    0.74248    0.50281    1.000
    H822     H        0.60080    0.76090    0.50030    1.000
    C823     C        0.64464    0.75334    0.56645    1.000
    H823     H        0.66300    0.75030    0.55980    1.000
    C824     C        0.71810    0.69479    0.38009    1.000
    H824     H        0.72610    0.70370    0.39580    1.000
    N1236    N        0.61856    0.73185    0.52729    1.000
    Cu207    Cu       0.62669    0.16280    0.97050    1.000
    Cu208    Cu       0.60004    0.22543    0.94205    1.000
    N1237    N        0.60846    0.22281    0.98353    1.000
    N1238    N        0.62086    0.19880    0.99548    1.000
    N1239    N        0.64342    0.17807    0.93459    1.000
    N1240    N        0.63591    0.20514    0.92447    1.000
    N1241    N        0.60839    0.26677    0.09201    1.000
    N1242    N        0.63795    0.26573    0.09033    1.000
    C825     C        0.59820    0.25436    0.06936    1.000
    H825     H        0.57900    0.25190    0.06520    1.000
    N1243    N        0.62040    0.24569    0.05296    1.000
    C826     C        0.62679    0.20450    0.02194    1.000
    H826     H        0.63520    0.19210    0.03490    1.000
    N1244    N        0.73153    0.18822    0.85676    1.000
    N1245    N        0.69046    0.18652    0.87768    1.000
    N1246    N        0.71175    0.17572    0.83835    1.000
    N1247    N        0.67011    0.18877    0.89859    1.000
    C827     C        0.65189    0.21092    0.90275    1.000
    H827     H        0.65110    0.22740    0.89180    1.000
    C828     C        0.68733    0.17510    0.85136    1.000
    H828     H        0.67050    0.16800    0.84380    1.000
    C829     C        0.66405    0.16872    0.91867    1.000
    H829     H        0.67320    0.15130    0.92070    1.000
    C830     C        0.60769    0.24248    0.00281    1.000
    H830     H        0.60080    0.26090    0.00030    1.000
    C831     C        0.64464    0.25334    0.06645    1.000
    H831     H        0.66300    0.25030    0.05980    1.000
    C832     C        0.71810    0.19479    0.88009    1.000
    H832     H        0.72610    0.20370    0.89580    1.000
    N1248    N        0.61856    0.23185    0.02729    1.000
    Cu209    Cu       0.62669    0.08720    0.27951    1.000
    Cu210    Cu       0.60004    0.02457    0.30795    1.000
    N1249    N        0.60846    0.02719    0.26647    1.000
    N1250    N        0.62086    0.05120    0.25452    1.000
    N1251    N        0.64342    0.07193    0.31541    1.000
    N1252    N        0.63591    0.04486    0.32553    1.000
    N1253    N        0.60839    0.98323    0.15799    1.000
    N1254    N        0.63795    0.98427    0.15967    1.000
    C833     C        0.59820    0.99564    0.18064    1.000
    H833     H        0.57900    0.99810    0.18480    1.000
    N1255    N        0.62040    0.00431    0.19704    1.000
    C834     C        0.62679    0.04550    0.22806    1.000
    H834     H        0.63520    0.05790    0.21510    1.000
    N1256    N        0.73153    0.06178    0.39324    1.000
    N1257    N        0.69046    0.06348    0.37232    1.000
    N1258    N        0.71175    0.07428    0.41165    1.000
    N1259    N        0.67011    0.06123    0.35141    1.000
    C835     C        0.65189    0.03908    0.34725    1.000
    H835     H        0.65110    0.02260    0.35820    1.000
    C836     C        0.68733    0.07490    0.39864    1.000
    H836     H        0.67050    0.08200    0.40620    1.000
    C837     C        0.66405    0.08128    0.33133    1.000
    H837     H        0.67320    0.09870    0.32930    1.000
    C838     C        0.60769    0.00752    0.24719    1.000
    H838     H        0.60080    0.98910    0.24970    1.000
    C839     C        0.64464    0.99666    0.18355    1.000
    H839     H        0.66300    0.99970    0.19020    1.000
    C840     C        0.71810    0.05521    0.36991    1.000
    H840     H        0.72610    0.04630    0.35420    1.000
    N1260    N        0.61856    0.01815    0.22271    1.000
    Cu211    Cu       0.62669    0.58720    0.77951    1.000
    Cu212    Cu       0.60004    0.52457    0.80795    1.000
    N1261    N        0.60846    0.52719    0.76647    1.000
    N1262    N        0.62086    0.55120    0.75452    1.000
    N1263    N        0.64342    0.57193    0.81541    1.000
    N1264    N        0.63591    0.54486    0.82553    1.000
    N1265    N        0.60839    0.48323    0.65799    1.000
    N1266    N        0.63795    0.48427    0.65967    1.000
    C841     C        0.59820    0.49564    0.68064    1.000
    H841     H        0.57900    0.49810    0.68480    1.000
    N1267    N        0.62040    0.50431    0.69704    1.000
    C842     C        0.62679    0.54550    0.72806    1.000
    H842     H        0.63520    0.55790    0.71510    1.000
    N1268    N        0.73153    0.56178    0.89324    1.000
    N1269    N        0.69046    0.56348    0.87232    1.000
    N1270    N        0.71175    0.57428    0.91165    1.000
    N1271    N        0.67011    0.56123    0.85141    1.000
    C843     C        0.65189    0.53908    0.84725    1.000
    H843     H        0.65110    0.52260    0.85820    1.000
    C844     C        0.68733    0.57490    0.89864    1.000
    H844     H        0.67050    0.58200    0.90620    1.000
    C845     C        0.66405    0.58128    0.83133    1.000
    H845     H        0.67320    0.59870    0.82930    1.000
    C846     C        0.60769    0.50752    0.74719    1.000
    H846     H        0.60080    0.48910    0.74970    1.000
    C847     C        0.64464    0.49666    0.68355    1.000
    H847     H        0.66300    0.49970    0.69020    1.000
    C848     C        0.71810    0.55521    0.86991    1.000
    H848     H        0.72610    0.54630    0.85420    1.000
    N1272    N        0.61856    0.51815    0.72271    1.000
    Cu213    Cu       0.12669    0.08720    0.77951    1.000
    Cu214    Cu       0.10004    0.02457    0.80795    1.000
    N1273    N        0.10846    0.02719    0.76647    1.000
    N1274    N        0.12086    0.05120    0.75452    1.000
    N1275    N        0.14342    0.07193    0.81541    1.000
    N1276    N        0.13591    0.04486    0.82553    1.000
    N1277    N        0.10839    0.98323    0.65799    1.000
    N1278    N        0.13795    0.98427    0.65967    1.000
    C849     C        0.09820    0.99564    0.68064    1.000
    H849     H        0.07900    0.99810    0.68480    1.000
    N1279    N        0.12040    0.00431    0.69704    1.000
    C850     C        0.12679    0.04550    0.72806    1.000
    H850     H        0.13520    0.05790    0.71510    1.000
    N1280    N        0.23153    0.06178    0.89324    1.000
    N1281    N        0.19046    0.06348    0.87232    1.000
    N1282    N        0.21175    0.07428    0.91165    1.000
    N1283    N        0.17011    0.06123    0.85141    1.000
    C851     C        0.15189    0.03908    0.84725    1.000
    H851     H        0.15110    0.02260    0.85820    1.000
    C852     C        0.18733    0.07490    0.89864    1.000
    H852     H        0.17050    0.08200    0.90620    1.000
    C853     C        0.16405    0.08128    0.83133    1.000
    H853     H        0.17320    0.09870    0.82930    1.000
    C854     C        0.10769    0.00752    0.74719    1.000
    H854     H        0.10080    0.98910    0.74970    1.000
    C855     C        0.14464    0.99666    0.68355    1.000
    H855     H        0.16300    0.99970    0.69020    1.000
    C856     C        0.21810    0.05521    0.86991    1.000
    H856     H        0.22610    0.04630    0.85420    1.000
    N1284    N        0.11856    0.01815    0.72271    1.000
    Cu215    Cu       0.12669    0.58720    0.27951    1.000
    Cu216    Cu       0.10004    0.52457    0.30795    1.000
    N1285    N        0.10846    0.52719    0.26647    1.000
    N1286    N        0.12086    0.55120    0.25452    1.000
    N1287    N        0.14342    0.57193    0.31541    1.000
    N1288    N        0.13591    0.54486    0.32553    1.000
    N1289    N        0.10839    0.48323    0.15799    1.000
    N1290    N        0.13795    0.48427    0.15967    1.000
    C857     C        0.09820    0.49564    0.18064    1.000
    H857     H        0.07900    0.49810    0.18480    1.000
    N1291    N        0.12040    0.50431    0.19704    1.000
    C858     C        0.12679    0.54550    0.22806    1.000
    H858     H        0.13520    0.55790    0.21510    1.000
    N1292    N        0.23153    0.56178    0.39324    1.000
    N1293    N        0.19046    0.56348    0.37232    1.000
    N1294    N        0.21175    0.57428    0.41165    1.000
    N1295    N        0.17011    0.56123    0.35141    1.000
    C859     C        0.15189    0.53908    0.34725    1.000
    H859     H        0.15110    0.52260    0.35820    1.000
    C860     C        0.18733    0.57490    0.39864    1.000
    H860     H        0.17050    0.58200    0.40620    1.000
    C861     C        0.16405    0.58128    0.33133    1.000
    H861     H        0.17320    0.59870    0.32930    1.000
    C862     C        0.10769    0.50752    0.24719    1.000
    H862     H        0.10080    0.48910    0.24970    1.000
    C863     C        0.14464    0.49666    0.18355    1.000
    H863     H        0.16300    0.49970    0.19020    1.000
    C864     C        0.21810    0.55521    0.36991    1.000
    H864     H        0.22610    0.54630    0.35420    1.000
    N1296    N        0.11856    0.51815    0.22271    1.000
    Cu217    Cu       0.12331    0.16280    0.77951    1.000
    Cu218    Cu       0.14996    0.22543    0.80795    1.000
    N1297    N        0.14154    0.22281    0.76647    1.000
    N1298    N        0.12914    0.19880    0.75452    1.000
    N1299    N        0.10658    0.17807    0.81541    1.000
    N1300    N        0.11409    0.20514    0.82553    1.000
    N1301    N        0.14161    0.26677    0.65799    1.000
    N1302    N        0.11205    0.26573    0.65967    1.000
    C865     C        0.15180    0.25436    0.68064    1.000
    H865     H        0.17100    0.25190    0.68480    1.000
    N1303    N        0.12960    0.24569    0.69704    1.000
    C866     C        0.12321    0.20450    0.72806    1.000
    H866     H        0.11480    0.19210    0.71510    1.000
    N1304    N        0.01847    0.18822    0.89324    1.000
    N1305    N        0.05954    0.18652    0.87232    1.000
    N1306    N        0.03825    0.17572    0.91165    1.000
    N1307    N        0.07989    0.18877    0.85141    1.000
    C867     C        0.09811    0.21092    0.84725    1.000
    H867     H        0.09890    0.22740    0.85820    1.000
    C868     C        0.06267    0.17510    0.89864    1.000
    H868     H        0.07950    0.16800    0.90620    1.000
    C869     C        0.08595    0.16872    0.83133    1.000
    H869     H        0.07680    0.15130    0.82930    1.000
    C870     C        0.14231    0.24248    0.74719    1.000
    H870     H        0.14920    0.26090    0.74970    1.000
    C871     C        0.10536    0.25334    0.68355    1.000
    H871     H        0.08700    0.25030    0.69020    1.000
    C872     C        0.03190    0.19479    0.86991    1.000
    H872     H        0.02390    0.20370    0.85420    1.000
    N1308    N        0.13144    0.23185    0.72271    1.000
    Cu219    Cu       0.12331    0.66280    0.27951    1.000
    Cu220    Cu       0.14996    0.72543    0.30795    1.000
    N1309    N        0.14154    0.72281    0.26647    1.000
    N1310    N        0.12914    0.69880    0.25452    1.000
    N1311    N        0.10658    0.67807    0.31541    1.000
    N1312    N        0.11409    0.70514    0.32553    1.000
    N1313    N        0.14161    0.76677    0.15799    1.000
    N1314    N        0.11205    0.76573    0.15967    1.000
    C873     C        0.15180    0.75436    0.18064    1.000
    H873     H        0.17100    0.75190    0.18480    1.000
    N1315    N        0.12960    0.74569    0.19704    1.000
    C874     C        0.12321    0.70450    0.22806    1.000
    H874     H        0.11480    0.69210    0.21510    1.000
    N1316    N        0.01847    0.68822    0.39324    1.000
    N1317    N        0.05954    0.68652    0.37232    1.000
    N1318    N        0.03825    0.67572    0.41165    1.000
    N1319    N        0.07989    0.68877    0.35141    1.000
    C875     C        0.09811    0.71092    0.34725    1.000
    H875     H        0.09890    0.72740    0.35820    1.000
    C876     C        0.06267    0.67510    0.39864    1.000
    H876     H        0.07950    0.66800    0.40620    1.000
    C877     C        0.08595    0.66872    0.33133    1.000
    H877     H        0.07680    0.65130    0.32930    1.000
    C878     C        0.14231    0.74248    0.24719    1.000
    H878     H        0.14920    0.76090    0.24970    1.000
    C879     C        0.10536    0.75334    0.18355    1.000
    H879     H        0.08700    0.75030    0.19020    1.000
    C880     C        0.03190    0.69479    0.36991    1.000
    H880     H        0.02390    0.70370    0.35420    1.000
    N1320    N        0.13144    0.73185    0.22271    1.000
    Cu221    Cu       0.62331    0.16280    0.27951    1.000
    Cu222    Cu       0.64996    0.22543    0.30795    1.000
    N1321    N        0.64154    0.22281    0.26647    1.000
    N1322    N        0.62914    0.19880    0.25452    1.000
    N1323    N        0.60658    0.17807    0.31541    1.000
    N1324    N        0.61409    0.20514    0.32553    1.000
    N1325    N        0.64161    0.26677    0.15799    1.000
    N1326    N        0.61205    0.26573    0.15967    1.000
    C881     C        0.65180    0.25436    0.18064    1.000
    H881     H        0.67100    0.25190    0.18480    1.000
    N1327    N        0.62960    0.24569    0.19704    1.000
    C882     C        0.62321    0.20450    0.22806    1.000
    H882     H        0.61480    0.19210    0.21510    1.000
    N1328    N        0.51847    0.18822    0.39324    1.000
    N1329    N        0.55954    0.18652    0.37232    1.000
    N1330    N        0.53825    0.17572    0.41165    1.000
    N1331    N        0.57989    0.18877    0.35141    1.000
    C883     C        0.59811    0.21092    0.34725    1.000
    H883     H        0.59890    0.22740    0.35820    1.000
    C884     C        0.56267    0.17510    0.39864    1.000
    H884     H        0.57950    0.16800    0.40620    1.000
    C885     C        0.58595    0.16872    0.33133    1.000
    H885     H        0.57680    0.15130    0.32930    1.000
    C886     C        0.64231    0.24248    0.24719    1.000
    H886     H        0.64920    0.26090    0.24970    1.000
    C887     C        0.60536    0.25334    0.18355    1.000
    H887     H        0.58700    0.25030    0.19020    1.000
    C888     C        0.53190    0.19479    0.36991    1.000
    H888     H        0.52390    0.20370    0.35420    1.000
    N1332    N        0.63144    0.23185    0.22271    1.000
    Cu223    Cu       0.62331    0.66280    0.77951    1.000
    Cu224    Cu       0.64996    0.72543    0.80795    1.000
    N1333    N        0.64154    0.72281    0.76647    1.000
    N1334    N        0.62914    0.69880    0.75452    1.000
    N1335    N        0.60658    0.67807    0.81541    1.000
    N1336    N        0.61409    0.70514    0.82553    1.000
    N1337    N        0.64161    0.76677    0.65799    1.000
    N1338    N        0.61205    0.76573    0.65967    1.000
    C889     C        0.65180    0.75436    0.68064    1.000
    H889     H        0.67100    0.75190    0.68480    1.000
    N1339    N        0.62960    0.74569    0.69704    1.000
    C890     C        0.62321    0.70450    0.72806    1.000
    H890     H        0.61480    0.69210    0.71510    1.000
    N1340    N        0.51847    0.68822    0.89324    1.000
    N1341    N        0.55954    0.68652    0.87232    1.000
    N1342    N        0.53825    0.67572    0.91165    1.000
    N1343    N        0.57989    0.68877    0.85141    1.000
    C891     C        0.59811    0.71092    0.84725    1.000
    H891     H        0.59890    0.72740    0.85820    1.000
    C892     C        0.56267    0.67510    0.89864    1.000
    H892     H        0.57950    0.66800    0.90620    1.000
    C893     C        0.58595    0.66872    0.83133    1.000
    H893     H        0.57680    0.65130    0.82930    1.000
    C894     C        0.64231    0.74248    0.74719    1.000
    H894     H        0.64920    0.76090    0.74970    1.000
    C895     C        0.60536    0.75334    0.68355    1.000
    H895     H        0.58700    0.75030    0.69020    1.000
    C896     C        0.53190    0.69479    0.86991    1.000
    H896     H        0.52390    0.70370    0.85420    1.000
    N1344    N        0.63144    0.73185    0.72271    1.000
    Cu225    Cu       0.47050    0.62331    0.58720    1.000
    Cu226    Cu       0.44205    0.64996    0.52457    1.000
    N1345    N        0.48353    0.64154    0.52719    1.000
    N1346    N        0.49548    0.62914    0.55120    1.000
    N1347    N        0.43459    0.60658    0.57193    1.000
    N1348    N        0.42447    0.61409    0.54486    1.000
    N1349    N        0.59201    0.64161    0.48323    1.000
    N1350    N        0.59033    0.61205    0.48427    1.000
    C897     C        0.56936    0.65180    0.49564    1.000
    H897     H        0.56520    0.67100    0.49810    1.000
    N1351    N        0.55296    0.62960    0.50431    1.000
    C898     C        0.52194    0.62321    0.54550    1.000
    H898     H        0.53490    0.61480    0.55790    1.000
    N1352    N        0.35676    0.51847    0.56178    1.000
    N1353    N        0.37768    0.55954    0.56348    1.000
    N1354    N        0.33835    0.53825    0.57428    1.000
    N1355    N        0.39859    0.57989    0.56123    1.000
    C899     C        0.40275    0.59811    0.53908    1.000
    H899     H        0.39180    0.59890    0.52260    1.000
    C900     C        0.35136    0.56267    0.57490    1.000
    H900     H        0.34380    0.57950    0.58200    1.000
    C901     C        0.41867    0.58595    0.58128    1.000
    H901     H        0.42070    0.57680    0.59870    1.000
    C902     C        0.50281    0.64231    0.50752    1.000
    H902     H        0.50030    0.64920    0.48910    1.000
    C903     C        0.56645    0.60536    0.49666    1.000
    H903     H        0.55980    0.58700    0.49970    1.000
    C904     C        0.38009    0.53190    0.55521    1.000
    H904     H        0.39580    0.52390    0.54630    1.000
    N1356    N        0.52729    0.63144    0.51815    1.000
    Cu227    Cu       0.47050    0.12331    0.08720    1.000
    Cu228    Cu       0.44205    0.14996    0.02457    1.000
    N1357    N        0.48353    0.14154    0.02719    1.000
    N1358    N        0.49548    0.12914    0.05120    1.000
    N1359    N        0.43459    0.10658    0.07193    1.000
    N1360    N        0.42447    0.11409    0.04486    1.000
    N1361    N        0.59201    0.14161    0.98323    1.000
    N1362    N        0.59033    0.11205    0.98427    1.000
    C905     C        0.56936    0.15180    0.99564    1.000
    H905     H        0.56520    0.17100    0.99810    1.000
    N1363    N        0.55296    0.12960    0.00431    1.000
    C906     C        0.52194    0.12321    0.04550    1.000
    H906     H        0.53490    0.11480    0.05790    1.000
    N1364    N        0.35676    0.01847    0.06178    1.000
    N1365    N        0.37768    0.05954    0.06348    1.000
    N1366    N        0.33835    0.03825    0.07428    1.000
    N1367    N        0.39859    0.07989    0.06123    1.000
    C907     C        0.40275    0.09811    0.03908    1.000
    H907     H        0.39180    0.09890    0.02260    1.000
    C908     C        0.35136    0.06267    0.07490    1.000
    H908     H        0.34380    0.07950    0.08200    1.000
    C909     C        0.41867    0.08595    0.08128    1.000
    H909     H        0.42070    0.07680    0.09870    1.000
    C910     C        0.50281    0.14231    0.00752    1.000
    H910     H        0.50030    0.14920    0.98910    1.000
    C911     C        0.56645    0.10536    0.99666    1.000
    H911     H        0.55980    0.08700    0.99970    1.000
    C912     C        0.38009    0.03190    0.05521    1.000
    H912     H        0.39580    0.02390    0.04630    1.000
    N1368    N        0.52729    0.13144    0.01815    1.000
    Cu229    Cu       0.97050    0.62331    0.08720    1.000
    Cu230    Cu       0.94205    0.64996    0.02457    1.000
    N1369    N        0.98353    0.64154    0.02719    1.000
    N1370    N        0.99548    0.62914    0.05120    1.000
    N1371    N        0.93459    0.60658    0.07193    1.000
    N1372    N        0.92447    0.61409    0.04486    1.000
    N1373    N        0.09201    0.64161    0.98323    1.000
    N1374    N        0.09033    0.61205    0.98427    1.000
    C913     C        0.06936    0.65180    0.99564    1.000
    H913     H        0.06520    0.67100    0.99810    1.000
    N1375    N        0.05296    0.62960    0.00431    1.000
    C914     C        0.02194    0.62321    0.04550    1.000
    H914     H        0.03490    0.61480    0.05790    1.000
    N1376    N        0.85676    0.51847    0.06178    1.000
    N1377    N        0.87768    0.55954    0.06348    1.000
    N1378    N        0.83835    0.53825    0.07428    1.000
    N1379    N        0.89859    0.57989    0.06123    1.000
    C915     C        0.90275    0.59811    0.03908    1.000
    H915     H        0.89180    0.59890    0.02260    1.000
    C916     C        0.85136    0.56267    0.07490    1.000
    H916     H        0.84380    0.57950    0.08200    1.000
    C917     C        0.91867    0.58595    0.08128    1.000
    H917     H        0.92070    0.57680    0.09870    1.000
    C918     C        0.00281    0.64231    0.00752    1.000
    H918     H        0.00030    0.64920    0.98910    1.000
    C919     C        0.06645    0.60536    0.99666    1.000
    H919     H        0.05980    0.58700    0.99970    1.000
    C920     C        0.88009    0.53190    0.05521    1.000
    H920     H        0.89580    0.52390    0.04630    1.000
    N1380    N        0.02729    0.63144    0.01815    1.000
    Cu231    Cu       0.97050    0.12331    0.58720    1.000
    Cu232    Cu       0.94205    0.14996    0.52457    1.000
    N1381    N        0.98353    0.14154    0.52719    1.000
    N1382    N        0.99548    0.12914    0.55120    1.000
    N1383    N        0.93459    0.10658    0.57193    1.000
    N1384    N        0.92447    0.11409    0.54486    1.000
    N1385    N        0.09201    0.14161    0.48323    1.000
    N1386    N        0.09033    0.11205    0.48427    1.000
    C921     C        0.06936    0.15180    0.49564    1.000
    H921     H        0.06520    0.17100    0.49810    1.000
    N1387    N        0.05296    0.12960    0.50431    1.000
    C922     C        0.02194    0.12321    0.54550    1.000
    H922     H        0.03490    0.11480    0.55790    1.000
    N1388    N        0.85676    0.01847    0.56178    1.000
    N1389    N        0.87768    0.05954    0.56348    1.000
    N1390    N        0.83835    0.03825    0.57428    1.000
    N1391    N        0.89859    0.07989    0.56123    1.000
    C923     C        0.90275    0.09811    0.53908    1.000
    H923     H        0.89180    0.09890    0.52260    1.000
    C924     C        0.85136    0.06267    0.57490    1.000
    H924     H        0.84380    0.07950    0.58200    1.000
    C925     C        0.91867    0.08595    0.58128    1.000
    H925     H        0.92070    0.07680    0.59870    1.000
    C926     C        0.00281    0.14231    0.50752    1.000
    H926     H        0.00030    0.14920    0.48910    1.000
    C927     C        0.06645    0.10536    0.49666    1.000
    H927     H        0.05980    0.08700    0.49970    1.000
    C928     C        0.88009    0.03190    0.55521    1.000
    H928     H        0.89580    0.02390    0.54630    1.000
    N1392    N        0.02729    0.13144    0.51815    1.000
    Cu233    Cu       0.97050    0.12669    0.66280    1.000
    Cu234    Cu       0.94205    0.10004    0.72543    1.000
    N1393    N        0.98353    0.10846    0.72281    1.000
    N1394    N        0.99548    0.12086    0.69880    1.000
    N1395    N        0.93459    0.14342    0.67807    1.000
    N1396    N        0.92447    0.13591    0.70514    1.000
    N1397    N        0.09201    0.10839    0.76677    1.000
    N1398    N        0.09033    0.13795    0.76573    1.000
    C929     C        0.06936    0.09820    0.75436    1.000
    H929     H        0.06520    0.07900    0.75190    1.000
    N1399    N        0.05296    0.12040    0.74569    1.000
    C930     C        0.02194    0.12679    0.70450    1.000
    H930     H        0.03490    0.13520    0.69210    1.000
    N1400    N        0.85676    0.23153    0.68822    1.000
    N1401    N        0.87768    0.19046    0.68652    1.000
    N1402    N        0.83835    0.21175    0.67572    1.000
    N1403    N        0.89859    0.17011    0.68877    1.000
    C931     C        0.90275    0.15189    0.71092    1.000
    H931     H        0.89180    0.15110    0.72740    1.000
    C932     C        0.85136    0.18733    0.67510    1.000
    H932     H        0.84380    0.17050    0.66800    1.000
    C933     C        0.91867    0.16405    0.66872    1.000
    H933     H        0.92070    0.17320    0.65130    1.000
    C934     C        0.00281    0.10769    0.74248    1.000
    H934     H        0.00030    0.10080    0.76090    1.000
    C935     C        0.06645    0.14464    0.75334    1.000
    H935     H        0.05980    0.16300    0.75030    1.000
    C936     C        0.88009    0.21810    0.69479    1.000
    H936     H        0.89580    0.22610    0.70370    1.000
    N1404    N        0.02729    0.11856    0.73185    1.000
    Cu235    Cu       0.97050    0.62669    0.16280    1.000
    Cu236    Cu       0.94205    0.60004    0.22543    1.000
    N1405    N        0.98353    0.60846    0.22281    1.000
    N1406    N        0.99548    0.62086    0.19880    1.000
    N1407    N        0.93459    0.64342    0.17807    1.000
    N1408    N        0.92447    0.63591    0.20514    1.000
    N1409    N        0.09201    0.60839    0.26677    1.000
    N1410    N        0.09033    0.63795    0.26573    1.000
    C937     C        0.06936    0.59820    0.25436    1.000
    H937     H        0.06520    0.57900    0.25190    1.000
    N1411    N        0.05296    0.62040    0.24569    1.000
    C938     C        0.02194    0.62679    0.20450    1.000
    H938     H        0.03490    0.63520    0.19210    1.000
    N1412    N        0.85676    0.73153    0.18822    1.000
    N1413    N        0.87768    0.69046    0.18652    1.000
    N1414    N        0.83835    0.71175    0.17572    1.000
    N1415    N        0.89859    0.67011    0.18877    1.000
    C939     C        0.90275    0.65189    0.21092    1.000
    H939     H        0.89180    0.65110    0.22740    1.000
    C940     C        0.85136    0.68733    0.17510    1.000
    H940     H        0.84380    0.67050    0.16800    1.000
    C941     C        0.91867    0.66405    0.16872    1.000
    H941     H        0.92070    0.67320    0.15130    1.000
    C942     C        0.00281    0.60769    0.24248    1.000
    H942     H        0.00030    0.60080    0.26090    1.000
    C943     C        0.06645    0.64464    0.25334    1.000
    H943     H        0.05980    0.66300    0.25030    1.000
    C944     C        0.88009    0.71810    0.19479    1.000
    H944     H        0.89580    0.72610    0.20370    1.000
    N1416    N        0.02729    0.61856    0.23185    1.000
    Cu237    Cu       0.47050    0.12669    0.16280    1.000
    Cu238    Cu       0.44205    0.10004    0.22543    1.000
    N1417    N        0.48353    0.10846    0.22281    1.000
    N1418    N        0.49548    0.12086    0.19880    1.000
    N1419    N        0.43459    0.14342    0.17807    1.000
    N1420    N        0.42447    0.13591    0.20514    1.000
    N1421    N        0.59201    0.10839    0.26677    1.000
    N1422    N        0.59033    0.13795    0.26573    1.000
    C945     C        0.56936    0.09820    0.25436    1.000
    H945     H        0.56520    0.07900    0.25190    1.000
    N1423    N        0.55296    0.12040    0.24569    1.000
    C946     C        0.52194    0.12679    0.20450    1.000
    H946     H        0.53490    0.13520    0.19210    1.000
    N1424    N        0.35676    0.23153    0.18822    1.000
    N1425    N        0.37768    0.19046    0.18652    1.000
    N1426    N        0.33835    0.21175    0.17572    1.000
    N1427    N        0.39859    0.17011    0.18877    1.000
    C947     C        0.40275    0.15189    0.21092    1.000
    H947     H        0.39180    0.15110    0.22740    1.000
    C948     C        0.35136    0.18733    0.17510    1.000
    H948     H        0.34380    0.17050    0.16800    1.000
    C949     C        0.41867    0.16405    0.16872    1.000
    H949     H        0.42070    0.17320    0.15130    1.000
    C950     C        0.50281    0.10769    0.24248    1.000
    H950     H        0.50030    0.10080    0.26090    1.000
    C951     C        0.56645    0.14464    0.25334    1.000
    H951     H        0.55980    0.16300    0.25030    1.000
    C952     C        0.38009    0.21810    0.19479    1.000
    H952     H        0.39580    0.22610    0.20370    1.000
    N1428    N        0.52729    0.11856    0.23185    1.000
    Cu239    Cu       0.47050    0.62669    0.66280    1.000
    Cu240    Cu       0.44205    0.60004    0.72543    1.000
    N1429    N        0.48353    0.60846    0.72281    1.000
    N1430    N        0.49548    0.62086    0.69880    1.000
    N1431    N        0.43459    0.64342    0.67807    1.000
    N1432    N        0.42447    0.63591    0.70514    1.000
    N1433    N        0.59201    0.60839    0.76677    1.000
    N1434    N        0.59033    0.63795    0.76573    1.000
    C953     C        0.56936    0.59820    0.75436    1.000
    H953     H        0.56520    0.57900    0.75190    1.000
    N1435    N        0.55296    0.62040    0.74569    1.000
    C954     C        0.52194    0.62679    0.70450    1.000
    H954     H        0.53490    0.63520    0.69210    1.000
    N1436    N        0.35676    0.73153    0.68822    1.000
    N1437    N        0.37768    0.69046    0.68652    1.000
    N1438    N        0.33835    0.71175    0.67572    1.000
    N1439    N        0.39859    0.67011    0.68877    1.000
    C955     C        0.40275    0.65189    0.71092    1.000
    H955     H        0.39180    0.65110    0.72740    1.000
    C956     C        0.35136    0.68733    0.67510    1.000
    H956     H        0.34380    0.67050    0.66800    1.000
    C957     C        0.41867    0.66405    0.66872    1.000
    H957     H        0.42070    0.67320    0.65130    1.000
    C958     C        0.50281    0.60769    0.74248    1.000
    H958     H        0.50030    0.60080    0.76090    1.000
    C959     C        0.56645    0.64464    0.75334    1.000
    H959     H        0.55980    0.66300    0.75030    1.000
    C960     C        0.38009    0.71810    0.69479    1.000
    H960     H        0.39580    0.72610    0.70370    1.000
    N1440    N        0.52729    0.61856    0.73185    1.000
    Cu241    Cu       0.27951    0.62669    0.08720    1.000
    Cu242    Cu       0.30795    0.60004    0.02457    1.000
    N1441    N        0.26647    0.60846    0.02719    1.000
    N1442    N        0.25452    0.62086    0.05120    1.000
    N1443    N        0.31541    0.64342    0.07193    1.000
    N1444    N        0.32553    0.63591    0.04486    1.000
    N1445    N        0.15799    0.60839    0.98323    1.000
    N1446    N        0.15967    0.63795    0.98427    1.000
    C961     C        0.18064    0.59820    0.99564    1.000
    H961     H        0.18480    0.57900    0.99810    1.000
    N1447    N        0.19704    0.62040    0.00431    1.000
    C962     C        0.22806    0.62679    0.04550    1.000
    H962     H        0.21510    0.63520    0.05790    1.000
    N1448    N        0.39324    0.73153    0.06178    1.000
    N1449    N        0.37232    0.69046    0.06348    1.000
    N1450    N        0.41165    0.71175    0.07428    1.000
    N1451    N        0.35141    0.67011    0.06123    1.000
    C963     C        0.34725    0.65189    0.03908    1.000
    H963     H        0.35820    0.65110    0.02260    1.000
    C964     C        0.39864    0.68733    0.07490    1.000
    H964     H        0.40620    0.67050    0.08200    1.000
    C965     C        0.33133    0.66405    0.08128    1.000
    H965     H        0.32930    0.67320    0.09870    1.000
    C966     C        0.24719    0.60769    0.00752    1.000
    H966     H        0.24970    0.60080    0.98910    1.000
    C967     C        0.18355    0.64464    0.99666    1.000
    H967     H        0.19020    0.66300    0.99970    1.000
    C968     C        0.36991    0.71810    0.05521    1.000
    H968     H        0.35420    0.72610    0.04630    1.000
    N1452    N        0.22271    0.61856    0.01815    1.000
    Cu243    Cu       0.27951    0.12669    0.58720    1.000
    Cu244    Cu       0.30795    0.10004    0.52457    1.000
    N1453    N        0.26647    0.10846    0.52719    1.000
    N1454    N        0.25452    0.12086    0.55120    1.000
    N1455    N        0.31541    0.14342    0.57193    1.000
    N1456    N        0.32553    0.13591    0.54486    1.000
    N1457    N        0.15799    0.10839    0.48323    1.000
    N1458    N        0.15967    0.13795    0.48427    1.000
    C969     C        0.18064    0.09820    0.49564    1.000
    H969     H        0.18480    0.07900    0.49810    1.000
    N1459    N        0.19704    0.12040    0.50431    1.000
    C970     C        0.22806    0.12679    0.54550    1.000
    H970     H        0.21510    0.13520    0.55790    1.000
    N1460    N        0.39324    0.23153    0.56178    1.000
    N1461    N        0.37232    0.19046    0.56348    1.000
    N1462    N        0.41165    0.21175    0.57428    1.000
    N1463    N        0.35141    0.17011    0.56123    1.000
    C971     C        0.34725    0.15189    0.53908    1.000
    H971     H        0.35820    0.15110    0.52260    1.000
    C972     C        0.39864    0.18733    0.57490    1.000
    H972     H        0.40620    0.17050    0.58200    1.000
    C973     C        0.33133    0.16405    0.58128    1.000
    H973     H        0.32930    0.17320    0.59870    1.000
    C974     C        0.24719    0.10769    0.50752    1.000
    H974     H        0.24970    0.10080    0.48910    1.000
    C975     C        0.18355    0.14464    0.49666    1.000
    H975     H        0.19020    0.16300    0.49970    1.000
    C976     C        0.36991    0.21810    0.55521    1.000
    H976     H        0.35420    0.22610    0.54630    1.000
    N1464    N        0.22271    0.11856    0.51815    1.000
    Cu245    Cu       0.77951    0.62669    0.58720    1.000
    Cu246    Cu       0.80795    0.60004    0.52457    1.000
    N1465    N        0.76647    0.60846    0.52719    1.000
    N1466    N        0.75452    0.62086    0.55120    1.000
    N1467    N        0.81541    0.64342    0.57193    1.000
    N1468    N        0.82553    0.63591    0.54486    1.000
    N1469    N        0.65799    0.60839    0.48323    1.000
    N1470    N        0.65967    0.63795    0.48427    1.000
    C977     C        0.68064    0.59820    0.49564    1.000
    H977     H        0.68480    0.57900    0.49810    1.000
    N1471    N        0.69704    0.62040    0.50431    1.000
    C978     C        0.72806    0.62679    0.54550    1.000
    H978     H        0.71510    0.63520    0.55790    1.000
    N1472    N        0.89324    0.73153    0.56178    1.000
    N1473    N        0.87232    0.69046    0.56348    1.000
    N1474    N        0.91165    0.71175    0.57428    1.000
    N1475    N        0.85141    0.67011    0.56123    1.000
    C979     C        0.84725    0.65189    0.53908    1.000
    H979     H        0.85820    0.65110    0.52260    1.000
    C980     C        0.89864    0.68733    0.57490    1.000
    H980     H        0.90620    0.67050    0.58200    1.000
    C981     C        0.83133    0.66405    0.58128    1.000
    H981     H        0.82930    0.67320    0.59870    1.000
    C982     C        0.74719    0.60769    0.50752    1.000
    H982     H        0.74970    0.60080    0.48910    1.000
    C983     C        0.68355    0.64464    0.49666    1.000
    H983     H        0.69020    0.66300    0.49970    1.000
    C984     C        0.86991    0.71810    0.55521    1.000
    H984     H        0.85420    0.72610    0.54630    1.000
    N1476    N        0.72271    0.61856    0.51815    1.000
    Cu247    Cu       0.77951    0.12669    0.08720    1.000
    Cu248    Cu       0.80795    0.10004    0.02457    1.000
    N1477    N        0.76647    0.10846    0.02719    1.000
    N1478    N        0.75452    0.12086    0.05120    1.000
    N1479    N        0.81541    0.14342    0.07193    1.000
    N1480    N        0.82553    0.13591    0.04486    1.000
    N1481    N        0.65799    0.10839    0.98323    1.000
    N1482    N        0.65967    0.13795    0.98427    1.000
    C985     C        0.68064    0.09820    0.99564    1.000
    H985     H        0.68480    0.07900    0.99810    1.000
    N1483    N        0.69704    0.12040    0.00431    1.000
    C986     C        0.72806    0.12679    0.04550    1.000
    H986     H        0.71510    0.13520    0.05790    1.000
    N1484    N        0.89324    0.23153    0.06178    1.000
    N1485    N        0.87232    0.19046    0.06348    1.000
    N1486    N        0.91165    0.21175    0.07428    1.000
    N1487    N        0.85141    0.17011    0.06123    1.000
    C987     C        0.84725    0.15189    0.03908    1.000
    H987     H        0.85820    0.15110    0.02260    1.000
    C988     C        0.89864    0.18733    0.07490    1.000
    H988     H        0.90620    0.17050    0.08200    1.000
    C989     C        0.83133    0.16405    0.08128    1.000
    H989     H        0.82930    0.17320    0.09870    1.000
    C990     C        0.74719    0.10769    0.00752    1.000
    H990     H        0.74970    0.10080    0.98910    1.000
    C991     C        0.68355    0.14464    0.99666    1.000
    H991     H        0.69020    0.16300    0.99970    1.000
    C992     C        0.86991    0.21810    0.05521    1.000
    H992     H        0.85420    0.22610    0.04630    1.000
    N1488    N        0.72271    0.11856    0.01815    1.000
    Cu249    Cu       0.77951    0.12331    0.16280    1.000
    Cu250    Cu       0.80795    0.14996    0.22543    1.000
    N1489    N        0.76647    0.14154    0.22281    1.000
    N1490    N        0.75452    0.12914    0.19880    1.000
    N1491    N        0.81541    0.10658    0.17807    1.000
    N1492    N        0.82553    0.11409    0.20514    1.000
    N1493    N        0.65799    0.14161    0.26677    1.000
    N1494    N        0.65967    0.11205    0.26573    1.000
    C993     C        0.68064    0.15180    0.25436    1.000
    H993     H        0.68480    0.17100    0.25190    1.000
    N1495    N        0.69704    0.12960    0.24569    1.000
    C994     C        0.72806    0.12321    0.20450    1.000
    H994     H        0.71510    0.11480    0.19210    1.000
    N1496    N        0.89324    0.01847    0.18822    1.000
    N1497    N        0.87232    0.05954    0.18652    1.000
    N1498    N        0.91165    0.03825    0.17572    1.000
    N1499    N        0.85141    0.07989    0.18877    1.000
    C995     C        0.84725    0.09811    0.21092    1.000
    H995     H        0.85820    0.09890    0.22740    1.000
    C996     C        0.89864    0.06267    0.17510    1.000
    H996     H        0.90620    0.07950    0.16800    1.000
    C997     C        0.83133    0.08595    0.16872    1.000
    H997     H        0.82930    0.07680    0.15130    1.000
    C998     C        0.74719    0.14231    0.24248    1.000
    H998     H        0.74970    0.14920    0.26090    1.000
    C999     C        0.68355    0.10536    0.25334    1.000
    H999     H        0.69020    0.08700    0.25030    1.000
    C1000    C        0.86991    0.03190    0.19479    1.000
    H1000    H        0.85420    0.02390    0.20370    1.000
    N1500    N        0.72271    0.13144    0.23185    1.000
    Cu251    Cu       0.77951    0.62331    0.66280    1.000
    Cu252    Cu       0.80795    0.64996    0.72543    1.000
    N1501    N        0.76647    0.64154    0.72281    1.000
    N1502    N        0.75452    0.62914    0.69880    1.000
    N1503    N        0.81541    0.60658    0.67807    1.000
    N1504    N        0.82553    0.61409    0.70514    1.000
    N1505    N        0.65799    0.64161    0.76677    1.000
    N1506    N        0.65967    0.61205    0.76573    1.000
    C1001    C        0.68064    0.65180    0.75436    1.000
    H1001    H        0.68480    0.67100    0.75190    1.000
    N1507    N        0.69704    0.62960    0.74569    1.000
    C1002    C        0.72806    0.62321    0.70450    1.000
    H1002    H        0.71510    0.61480    0.69210    1.000
    N1508    N        0.89324    0.51847    0.68822    1.000
    N1509    N        0.87232    0.55954    0.68652    1.000
    N1510    N        0.91165    0.53825    0.67572    1.000
    N1511    N        0.85141    0.57989    0.68877    1.000
    C1003    C        0.84725    0.59811    0.71092    1.000
    H1003    H        0.85820    0.59890    0.72740    1.000
    C1004    C        0.89864    0.56267    0.67510    1.000
    H1004    H        0.90620    0.57950    0.66800    1.000
    C1005    C        0.83133    0.58595    0.66872    1.000
    H1005    H        0.82930    0.57680    0.65130    1.000
    C1006    C        0.74719    0.64231    0.74248    1.000
    H1006    H        0.74970    0.64920    0.76090    1.000
    C1007    C        0.68355    0.60536    0.75334    1.000
    H1007    H        0.69020    0.58700    0.75030    1.000
    C1008    C        0.86991    0.53190    0.69479    1.000
    H1008    H        0.85420    0.52390    0.70370    1.000
    N1512    N        0.72271    0.63144    0.73185    1.000
    Cu253    Cu       0.27951    0.12331    0.66280    1.000
    Cu254    Cu       0.30795    0.14996    0.72543    1.000
    N1513    N        0.26647    0.14154    0.72281    1.000
    N1514    N        0.25452    0.12914    0.69880    1.000
    N1515    N        0.31541    0.10658    0.67807    1.000
    N1516    N        0.32553    0.11409    0.70514    1.000
    N1517    N        0.15799    0.14161    0.76677    1.000
    N1518    N        0.15967    0.11205    0.76573    1.000
    C1009    C        0.18064    0.15180    0.75436    1.000
    H1009    H        0.18480    0.17100    0.75190    1.000
    N1519    N        0.19704    0.12960    0.74569    1.000
    C1010    C        0.22806    0.12321    0.70450    1.000
    H1010    H        0.21510    0.11480    0.69210    1.000
    N1520    N        0.39324    0.01847    0.68822    1.000
    N1521    N        0.37232    0.05954    0.68652    1.000
    N1522    N        0.41165    0.03825    0.67572    1.000
    N1523    N        0.35141    0.07989    0.68877    1.000
    C1011    C        0.34725    0.09811    0.71092    1.000
    H1011    H        0.35820    0.09890    0.72740    1.000
    C1012    C        0.39864    0.06267    0.67510    1.000
    H1012    H        0.40620    0.07950    0.66800    1.000
    C1013    C        0.33133    0.08595    0.66872    1.000
    H1013    H        0.32930    0.07680    0.65130    1.000
    C1014    C        0.24719    0.14231    0.74248    1.000
    H1014    H        0.24970    0.14920    0.76090    1.000
    C1015    C        0.18355    0.10536    0.75334    1.000
    H1015    H        0.19020    0.08700    0.75030    1.000
    C1016    C        0.36991    0.03190    0.69479    1.000
    H1016    H        0.35420    0.02390    0.70370    1.000
    N1524    N        0.22271    0.13144    0.73185    1.000
    Cu255    Cu       0.27951    0.62331    0.16280    1.000
    Cu256    Cu       0.30795    0.64996    0.22543    1.000
    N1525    N        0.26647    0.64154    0.22281    1.000
    N1526    N        0.25452    0.62914    0.19880    1.000
    N1527    N        0.31541    0.60658    0.17807    1.000
    N1528    N        0.32553    0.61409    0.20514    1.000
    N1529    N        0.15799    0.64161    0.26677    1.000
    N1530    N        0.15967    0.61205    0.26573    1.000
    C1017    C        0.18064    0.65180    0.25436    1.000
    H1017    H        0.18480    0.67100    0.25190    1.000
    N1531    N        0.19704    0.62960    0.24569    1.000
    C1018    C        0.22806    0.62321    0.20450    1.000
    H1018    H        0.21510    0.61480    0.19210    1.000
    N1532    N        0.39324    0.51847    0.18822    1.000
    N1533    N        0.37232    0.55954    0.18652    1.000
    N1534    N        0.41165    0.53825    0.17572    1.000
    N1535    N        0.35141    0.57989    0.18877    1.000
    C1019    C        0.34725    0.59811    0.21092    1.000
    H1019    H        0.35820    0.59890    0.22740    1.000
    C1020    C        0.39864    0.56267    0.17510    1.000
    H1020    H        0.40620    0.57950    0.16800    1.000
    C1021    C        0.33133    0.58595    0.16872    1.000
    H1021    H        0.32930    0.57680    0.15130    1.000
    C1022    C        0.24719    0.64231    0.24248    1.000
    H1022    H        0.24970    0.64920    0.26090    1.000
    C1023    C        0.18355    0.60536    0.25334    1.000
    H1023    H        0.19020    0.58700    0.25030    1.000
    C1024    C        0.36991    0.53190    0.19479    1.000
    H1024    H        0.35420    0.52390    0.20370    1.000
    N1536    N        0.22271    0.63144    0.23185    1.000
    Cu257    Cu       0.58720    0.47050    0.62331    1.000
    Cu258    Cu       0.52457    0.44205    0.64996    1.000
    N1537    N        0.52719    0.48353    0.64154    1.000
    N1538    N        0.55120    0.49548    0.62914    1.000
    N1539    N        0.57193    0.43459    0.60658    1.000
    N1540    N        0.54486    0.42447    0.61409    1.000
    N1541    N        0.48323    0.59201    0.64161    1.000
    N1542    N        0.48427    0.59033    0.61205    1.000
    C1025    C        0.49564    0.56936    0.65180    1.000
    H1025    H        0.49810    0.56520    0.67100    1.000
    N1543    N        0.50431    0.55296    0.62960    1.000
    C1026    C        0.54550    0.52194    0.62321    1.000
    H1026    H        0.55790    0.53490    0.61480    1.000
    N1544    N        0.56178    0.35676    0.51847    1.000
    N1545    N        0.56348    0.37768    0.55954    1.000
    N1546    N        0.57428    0.33835    0.53825    1.000
    N1547    N        0.56123    0.39859    0.57989    1.000
    C1027    C        0.53908    0.40275    0.59811    1.000
    H1027    H        0.52260    0.39180    0.59890    1.000
    C1028    C        0.57490    0.35136    0.56267    1.000
    H1028    H        0.58200    0.34380    0.57950    1.000
    C1029    C        0.58128    0.41867    0.58595    1.000
    H1029    H        0.59870    0.42070    0.57680    1.000
    C1030    C        0.50752    0.50281    0.64231    1.000
    H1030    H        0.48910    0.50030    0.64920    1.000
    C1031    C        0.49666    0.56645    0.60536    1.000
    H1031    H        0.49970    0.55980    0.58700    1.000
    C1032    C        0.55521    0.38009    0.53190    1.000
    H1032    H        0.54630    0.39580    0.52390    1.000
    N1548    N        0.51815    0.52729    0.63144    1.000
    Cu259    Cu       0.58720    0.97050    0.12331    1.000
    Cu260    Cu       0.52457    0.94205    0.14996    1.000
    N1549    N        0.52719    0.98353    0.14154    1.000
    N1550    N        0.55120    0.99548    0.12914    1.000
    N1551    N        0.57193    0.93459    0.10658    1.000
    N1552    N        0.54486    0.92447    0.11409    1.000
    N1553    N        0.48323    0.09201    0.14161    1.000
    N1554    N        0.48427    0.09033    0.11205    1.000
    C1033    C        0.49564    0.06936    0.15180    1.000
    H1033    H        0.49810    0.06520    0.17100    1.000
    N1555    N        0.50431    0.05296    0.12960    1.000
    C1034    C        0.54550    0.02194    0.12321    1.000
    H1034    H        0.55790    0.03490    0.11480    1.000
    N1556    N        0.56178    0.85676    0.01847    1.000
    N1557    N        0.56348    0.87768    0.05954    1.000
    N1558    N        0.57428    0.83835    0.03825    1.000
    N1559    N        0.56123    0.89859    0.07989    1.000
    C1035    C        0.53908    0.90275    0.09811    1.000
    H1035    H        0.52260    0.89180    0.09890    1.000
    C1036    C        0.57490    0.85136    0.06267    1.000
    H1036    H        0.58200    0.84380    0.07950    1.000
    C1037    C        0.58128    0.91867    0.08595    1.000
    H1037    H        0.59870    0.92070    0.07680    1.000
    C1038    C        0.50752    0.00281    0.14231    1.000
    H1038    H        0.48910    0.00030    0.14920    1.000
    C1039    C        0.49666    0.06645    0.10536    1.000
    H1039    H        0.49970    0.05980    0.08700    1.000
    C1040    C        0.55521    0.88009    0.03190    1.000
    H1040    H        0.54630    0.89580    0.02390    1.000
    N1560    N        0.51815    0.02729    0.13144    1.000
    Cu261    Cu       0.08720    0.47050    0.12331    1.000
    Cu262    Cu       0.02457    0.44205    0.14996    1.000
    N1561    N        0.02719    0.48353    0.14154    1.000
    N1562    N        0.05120    0.49548    0.12914    1.000
    N1563    N        0.07193    0.43459    0.10658    1.000
    N1564    N        0.04486    0.42447    0.11409    1.000
    N1565    N        0.98323    0.59201    0.14161    1.000
    N1566    N        0.98427    0.59033    0.11205    1.000
    C1041    C        0.99564    0.56936    0.15180    1.000
    H1041    H        0.99810    0.56520    0.17100    1.000
    N1567    N        0.00431    0.55296    0.12960    1.000
    C1042    C        0.04550    0.52194    0.12321    1.000
    H1042    H        0.05790    0.53490    0.11480    1.000
    N1568    N        0.06178    0.35676    0.01847    1.000
    N1569    N        0.06348    0.37768    0.05954    1.000
    N1570    N        0.07428    0.33835    0.03825    1.000
    N1571    N        0.06123    0.39859    0.07989    1.000
    C1043    C        0.03908    0.40275    0.09811    1.000
    H1043    H        0.02260    0.39180    0.09890    1.000
    C1044    C        0.07490    0.35136    0.06267    1.000
    H1044    H        0.08200    0.34380    0.07950    1.000
    C1045    C        0.08128    0.41867    0.08595    1.000
    H1045    H        0.09870    0.42070    0.07680    1.000
    C1046    C        0.00752    0.50281    0.14231    1.000
    H1046    H        0.98910    0.50030    0.14920    1.000
    C1047    C        0.99666    0.56645    0.10536    1.000
    H1047    H        0.99970    0.55980    0.08700    1.000
    C1048    C        0.05521    0.38009    0.03190    1.000
    H1048    H        0.04630    0.39580    0.02390    1.000
    N1572    N        0.01815    0.52729    0.13144    1.000
    Cu263    Cu       0.08720    0.97050    0.62331    1.000
    Cu264    Cu       0.02457    0.94205    0.64996    1.000
    N1573    N        0.02719    0.98353    0.64154    1.000
    N1574    N        0.05120    0.99548    0.62914    1.000
    N1575    N        0.07193    0.93459    0.60658    1.000
    N1576    N        0.04486    0.92447    0.61409    1.000
    N1577    N        0.98323    0.09201    0.64161    1.000
    N1578    N        0.98427    0.09033    0.61205    1.000
    C1049    C        0.99564    0.06936    0.65180    1.000
    H1049    H        0.99810    0.06520    0.67100    1.000
    N1579    N        0.00431    0.05296    0.62960    1.000
    C1050    C        0.04550    0.02194    0.62321    1.000
    H1050    H        0.05790    0.03490    0.61480    1.000
    N1580    N        0.06178    0.85676    0.51847    1.000
    N1581    N        0.06348    0.87768    0.55954    1.000
    N1582    N        0.07428    0.83835    0.53825    1.000
    N1583    N        0.06123    0.89859    0.57989    1.000
    C1051    C        0.03908    0.90275    0.59811    1.000
    H1051    H        0.02260    0.89180    0.59890    1.000
    C1052    C        0.07490    0.85136    0.56267    1.000
    H1052    H        0.08200    0.84380    0.57950    1.000
    C1053    C        0.08128    0.91867    0.58595    1.000
    H1053    H        0.09870    0.92070    0.57680    1.000
    C1054    C        0.00752    0.00281    0.64231    1.000
    H1054    H        0.98910    0.00030    0.64920    1.000
    C1055    C        0.99666    0.06645    0.60536    1.000
    H1055    H        0.99970    0.05980    0.58700    1.000
    C1056    C        0.05521    0.88009    0.53190    1.000
    H1056    H        0.04630    0.89580    0.52390    1.000
    N1584    N        0.01815    0.02729    0.63144    1.000
    Cu265    Cu       0.66280    0.97050    0.12669    1.000
    Cu266    Cu       0.72543    0.94205    0.10004    1.000
    N1585    N        0.72281    0.98353    0.10846    1.000
    N1586    N        0.69880    0.99548    0.12086    1.000
    N1587    N        0.67807    0.93459    0.14342    1.000
    N1588    N        0.70514    0.92447    0.13591    1.000
    N1589    N        0.76677    0.09201    0.10839    1.000
    N1590    N        0.76573    0.09033    0.13795    1.000
    C1057    C        0.75436    0.06936    0.09820    1.000
    H1057    H        0.75190    0.06520    0.07900    1.000
    N1591    N        0.74569    0.05296    0.12040    1.000
    C1058    C        0.70450    0.02194    0.12679    1.000
    H1058    H        0.69210    0.03490    0.13520    1.000
    N1592    N        0.68822    0.85676    0.23153    1.000
    N1593    N        0.68652    0.87768    0.19046    1.000
    N1594    N        0.67572    0.83835    0.21175    1.000
    N1595    N        0.68877    0.89859    0.17011    1.000
    C1059    C        0.71092    0.90275    0.15189    1.000
    H1059    H        0.72740    0.89180    0.15110    1.000
    C1060    C        0.67510    0.85136    0.18733    1.000
    H1060    H        0.66800    0.84380    0.17050    1.000
    C1061    C        0.66872    0.91867    0.16405    1.000
    H1061    H        0.65130    0.92070    0.17320    1.000
    C1062    C        0.74248    0.00281    0.10769    1.000
    H1062    H        0.76090    0.00030    0.10080    1.000
    C1063    C        0.75334    0.06645    0.14464    1.000
    H1063    H        0.75030    0.05980    0.16300    1.000
    C1064    C        0.69479    0.88009    0.21810    1.000
    H1064    H        0.70370    0.89580    0.22610    1.000
    N1596    N        0.73185    0.02729    0.11856    1.000
    Cu267    Cu       0.66280    0.47050    0.62669    1.000
    Cu268    Cu       0.72543    0.44205    0.60004    1.000
    N1597    N        0.72281    0.48353    0.60846    1.000
    N1598    N        0.69880    0.49548    0.62086    1.000
    N1599    N        0.67807    0.43459    0.64342    1.000
    N1600    N        0.70514    0.42447    0.63591    1.000
    N1601    N        0.76677    0.59201    0.60839    1.000
    N1602    N        0.76573    0.59033    0.63795    1.000
    C1065    C        0.75436    0.56936    0.59820    1.000
    H1065    H        0.75190    0.56520    0.57900    1.000
    N1603    N        0.74569    0.55296    0.62040    1.000
    C1066    C        0.70450    0.52194    0.62679    1.000
    H1066    H        0.69210    0.53490    0.63520    1.000
    N1604    N        0.68822    0.35676    0.73153    1.000
    N1605    N        0.68652    0.37768    0.69046    1.000
    N1606    N        0.67572    0.33835    0.71175    1.000
    N1607    N        0.68877    0.39859    0.67011    1.000
    C1067    C        0.71092    0.40275    0.65189    1.000
    H1067    H        0.72740    0.39180    0.65110    1.000
    C1068    C        0.67510    0.35136    0.68733    1.000
    H1068    H        0.66800    0.34380    0.67050    1.000
    C1069    C        0.66872    0.41867    0.66405    1.000
    H1069    H        0.65130    0.42070    0.67320    1.000
    C1070    C        0.74248    0.50281    0.60769    1.000
    H1070    H        0.76090    0.50030    0.60080    1.000
    C1071    C        0.75334    0.56645    0.64464    1.000
    H1071    H        0.75030    0.55980    0.66300    1.000
    C1072    C        0.69479    0.38009    0.71810    1.000
    H1072    H        0.70370    0.39580    0.72610    1.000
    N1608    N        0.73185    0.52729    0.61856    1.000
    Cu269    Cu       0.16280    0.97050    0.62669    1.000
    Cu270    Cu       0.22543    0.94205    0.60004    1.000
    N1609    N        0.22281    0.98353    0.60846    1.000
    N1610    N        0.19880    0.99548    0.62086    1.000
    N1611    N        0.17807    0.93459    0.64342    1.000
    N1612    N        0.20514    0.92447    0.63591    1.000
    N1613    N        0.26677    0.09201    0.60839    1.000
    N1614    N        0.26573    0.09033    0.63795    1.000
    C1073    C        0.25436    0.06936    0.59820    1.000
    H1073    H        0.25190    0.06520    0.57900    1.000
    N1615    N        0.24569    0.05296    0.62040    1.000
    C1074    C        0.20450    0.02194    0.62679    1.000
    H1074    H        0.19210    0.03490    0.63520    1.000
    N1616    N        0.18822    0.85676    0.73153    1.000
    N1617    N        0.18652    0.87768    0.69046    1.000
    N1618    N        0.17572    0.83835    0.71175    1.000
    N1619    N        0.18877    0.89859    0.67011    1.000
    C1075    C        0.21092    0.90275    0.65189    1.000
    H1075    H        0.22740    0.89180    0.65110    1.000
    C1076    C        0.17510    0.85136    0.68733    1.000
    H1076    H        0.16800    0.84380    0.67050    1.000
    C1077    C        0.16872    0.91867    0.66405    1.000
    H1077    H        0.15130    0.92070    0.67320    1.000
    C1078    C        0.24248    0.00281    0.60769    1.000
    H1078    H        0.26090    0.00030    0.60080    1.000
    C1079    C        0.25334    0.06645    0.64464    1.000
    H1079    H        0.25030    0.05980    0.66300    1.000
    C1080    C        0.19479    0.88009    0.71810    1.000
    H1080    H        0.20370    0.89580    0.72610    1.000
    N1620    N        0.23185    0.02729    0.61856    1.000
    Cu271    Cu       0.16280    0.47050    0.12669    1.000
    Cu272    Cu       0.22543    0.44205    0.10004    1.000
    N1621    N        0.22281    0.48353    0.10846    1.000
    N1622    N        0.19880    0.49548    0.12086    1.000
    N1623    N        0.17807    0.43459    0.14342    1.000
    N1624    N        0.20514    0.42447    0.13591    1.000
    N1625    N        0.26677    0.59201    0.10839    1.000
    N1626    N        0.26573    0.59033    0.13795    1.000
    C1081    C        0.25436    0.56936    0.09820    1.000
    H1081    H        0.25190    0.56520    0.07900    1.000
    N1627    N        0.24569    0.55296    0.12040    1.000
    C1082    C        0.20450    0.52194    0.12679    1.000
    H1082    H        0.19210    0.53490    0.13520    1.000
    N1628    N        0.18822    0.35676    0.23153    1.000
    N1629    N        0.18652    0.37768    0.19046    1.000
    N1630    N        0.17572    0.33835    0.21175    1.000
    N1631    N        0.18877    0.39859    0.17011    1.000
    C1083    C        0.21092    0.40275    0.15189    1.000
    H1083    H        0.22740    0.39180    0.15110    1.000
    C1084    C        0.17510    0.35136    0.18733    1.000
    H1084    H        0.16800    0.34380    0.17050    1.000
    C1085    C        0.16872    0.41867    0.16405    1.000
    H1085    H        0.15130    0.42070    0.17320    1.000
    C1086    C        0.24248    0.50281    0.10769    1.000
    H1086    H        0.26090    0.50030    0.10080    1.000
    C1087    C        0.25334    0.56645    0.14464    1.000
    H1087    H        0.25030    0.55980    0.16300    1.000
    C1088    C        0.19479    0.38009    0.21810    1.000
    H1088    H        0.20370    0.39580    0.22610    1.000
    N1632    N        0.23185    0.52729    0.11856    1.000
    Cu273    Cu       0.08720    0.27951    0.62669    1.000
    Cu274    Cu       0.02457    0.30795    0.60004    1.000
    N1633    N        0.02719    0.26647    0.60846    1.000
    N1634    N        0.05120    0.25452    0.62086    1.000
    N1635    N        0.07193    0.31541    0.64342    1.000
    N1636    N        0.04486    0.32553    0.63591    1.000
    N1637    N        0.98323    0.15799    0.60839    1.000
    N1638    N        0.98427    0.15967    0.63795    1.000
    C1089    C        0.99564    0.18064    0.59820    1.000
    H1089    H        0.99810    0.18480    0.57900    1.000
    N1639    N        0.00431    0.19704    0.62040    1.000
    C1090    C        0.04550    0.22806    0.62679    1.000
    H1090    H        0.05790    0.21510    0.63520    1.000
    N1640    N        0.06178    0.39324    0.73153    1.000
    N1641    N        0.06348    0.37232    0.69046    1.000
    N1642    N        0.07428    0.41165    0.71175    1.000
    N1643    N        0.06123    0.35141    0.67011    1.000
    C1091    C        0.03908    0.34725    0.65189    1.000
    H1091    H        0.02260    0.35820    0.65110    1.000
    C1092    C        0.07490    0.39864    0.68733    1.000
    H1092    H        0.08200    0.40620    0.67050    1.000
    C1093    C        0.08128    0.33133    0.66405    1.000
    H1093    H        0.09870    0.32930    0.67320    1.000
    C1094    C        0.00752    0.24719    0.60769    1.000
    H1094    H        0.98910    0.24970    0.60080    1.000
    C1095    C        0.99666    0.18355    0.64464    1.000
    H1095    H        0.99970    0.19020    0.66300    1.000
    C1096    C        0.05521    0.36991    0.71810    1.000
    H1096    H        0.04630    0.35420    0.72610    1.000
    N1644    N        0.01815    0.22271    0.61856    1.000
    Cu275    Cu       0.08720    0.77951    0.12669    1.000
    Cu276    Cu       0.02457    0.80795    0.10004    1.000
    N1645    N        0.02719    0.76647    0.10846    1.000
    N1646    N        0.05120    0.75452    0.12086    1.000
    N1647    N        0.07193    0.81541    0.14342    1.000
    N1648    N        0.04486    0.82553    0.13591    1.000
    N1649    N        0.98323    0.65799    0.10839    1.000
    N1650    N        0.98427    0.65967    0.13795    1.000
    C1097    C        0.99564    0.68064    0.09820    1.000
    H1097    H        0.99810    0.68480    0.07900    1.000
    N1651    N        0.00431    0.69704    0.12040    1.000
    C1098    C        0.04550    0.72806    0.12679    1.000
    H1098    H        0.05790    0.71510    0.13520    1.000
    N1652    N        0.06178    0.89324    0.23153    1.000
    N1653    N        0.06348    0.87232    0.19046    1.000
    N1654    N        0.07428    0.91165    0.21175    1.000
    N1655    N        0.06123    0.85141    0.17011    1.000
    C1099    C        0.03908    0.84725    0.15189    1.000
    H1099    H        0.02260    0.85820    0.15110    1.000
    C1100    C        0.07490    0.89864    0.18733    1.000
    H1100    H        0.08200    0.90620    0.17050    1.000
    C1101    C        0.08128    0.83133    0.16405    1.000
    H1101    H        0.09870    0.82930    0.17320    1.000
    C1102    C        0.00752    0.74719    0.10769    1.000
    H1102    H        0.98910    0.74970    0.10080    1.000
    C1103    C        0.99666    0.68355    0.14464    1.000
    H1103    H        0.99970    0.69020    0.16300    1.000
    C1104    C        0.05521    0.86991    0.21810    1.000
    H1104    H        0.04630    0.85420    0.22610    1.000
    N1656    N        0.01815    0.72271    0.11856    1.000
    Cu277    Cu       0.58720    0.27951    0.12669    1.000
    Cu278    Cu       0.52457    0.30795    0.10004    1.000
    N1657    N        0.52719    0.26647    0.10846    1.000
    N1658    N        0.55120    0.25452    0.12086    1.000
    N1659    N        0.57193    0.31541    0.14342    1.000
    N1660    N        0.54486    0.32553    0.13591    1.000
    N1661    N        0.48323    0.15799    0.10839    1.000
    N1662    N        0.48427    0.15967    0.13795    1.000
    C1105    C        0.49564    0.18064    0.09820    1.000
    H1105    H        0.49810    0.18480    0.07900    1.000
    N1663    N        0.50431    0.19704    0.12040    1.000
    C1106    C        0.54550    0.22806    0.12679    1.000
    H1106    H        0.55790    0.21510    0.13520    1.000
    N1664    N        0.56178    0.39324    0.23153    1.000
    N1665    N        0.56348    0.37232    0.19046    1.000
    N1666    N        0.57428    0.41165    0.21175    1.000
    N1667    N        0.56123    0.35141    0.17011    1.000
    C1107    C        0.53908    0.34725    0.15189    1.000
    H1107    H        0.52260    0.35820    0.15110    1.000
    C1108    C        0.57490    0.39864    0.18733    1.000
    H1108    H        0.58200    0.40620    0.17050    1.000
    C1109    C        0.58128    0.33133    0.16405    1.000
    H1109    H        0.59870    0.32930    0.17320    1.000
    C1110    C        0.50752    0.24719    0.10769    1.000
    H1110    H        0.48910    0.24970    0.10080    1.000
    C1111    C        0.49666    0.18355    0.14464    1.000
    H1111    H        0.49970    0.19020    0.16300    1.000
    C1112    C        0.55521    0.36991    0.21810    1.000
    H1112    H        0.54630    0.35420    0.22610    1.000
    N1668    N        0.51815    0.22271    0.11856    1.000
    Cu279    Cu       0.58720    0.77951    0.62669    1.000
    Cu280    Cu       0.52457    0.80795    0.60004    1.000
    N1669    N        0.52719    0.76647    0.60846    1.000
    N1670    N        0.55120    0.75452    0.62086    1.000
    N1671    N        0.57193    0.81541    0.64342    1.000
    N1672    N        0.54486    0.82553    0.63591    1.000
    N1673    N        0.48323    0.65799    0.60839    1.000
    N1674    N        0.48427    0.65967    0.63795    1.000
    C1113    C        0.49564    0.68064    0.59820    1.000
    H1113    H        0.49810    0.68480    0.57900    1.000
    N1675    N        0.50431    0.69704    0.62040    1.000
    C1114    C        0.54550    0.72806    0.62679    1.000
    H1114    H        0.55790    0.71510    0.63520    1.000
    N1676    N        0.56178    0.89324    0.73153    1.000
    N1677    N        0.56348    0.87232    0.69046    1.000
    N1678    N        0.57428    0.91165    0.71175    1.000
    N1679    N        0.56123    0.85141    0.67011    1.000
    C1115    C        0.53908    0.84725    0.65189    1.000
    H1115    H        0.52260    0.85820    0.65110    1.000
    C1116    C        0.57490    0.89864    0.68733    1.000
    H1116    H        0.58200    0.90620    0.67050    1.000
    C1117    C        0.58128    0.83133    0.66405    1.000
    H1117    H        0.59870    0.82930    0.67320    1.000
    C1118    C        0.50752    0.74719    0.60769    1.000
    H1118    H        0.48910    0.74970    0.60080    1.000
    C1119    C        0.49666    0.68355    0.64464    1.000
    H1119    H        0.49970    0.69020    0.66300    1.000
    C1120    C        0.55521    0.86991    0.71810    1.000
    H1120    H        0.54630    0.85420    0.72610    1.000
    N1680    N        0.51815    0.72271    0.61856    1.000
    Cu281    Cu       0.16280    0.77951    0.12331    1.000
    Cu282    Cu       0.22543    0.80795    0.14996    1.000
    N1681    N        0.22281    0.76647    0.14154    1.000
    N1682    N        0.19880    0.75452    0.12914    1.000
    N1683    N        0.17807    0.81541    0.10658    1.000
    N1684    N        0.20514    0.82553    0.11409    1.000
    N1685    N        0.26677    0.65799    0.14161    1.000
    N1686    N        0.26573    0.65967    0.11205    1.000
    C1121    C        0.25436    0.68064    0.15180    1.000
    H1121    H        0.25190    0.68480    0.17100    1.000
    N1687    N        0.24569    0.69704    0.12960    1.000
    C1122    C        0.20450    0.72806    0.12321    1.000
    H1122    H        0.19210    0.71510    0.11480    1.000
    N1688    N        0.18822    0.89324    0.01847    1.000
    N1689    N        0.18652    0.87232    0.05954    1.000
    N1690    N        0.17572    0.91165    0.03825    1.000
    N1691    N        0.18877    0.85141    0.07989    1.000
    C1123    C        0.21092    0.84725    0.09811    1.000
    H1123    H        0.22740    0.85820    0.09890    1.000
    C1124    C        0.17510    0.89864    0.06267    1.000
    H1124    H        0.16800    0.90620    0.07950    1.000
    C1125    C        0.16872    0.83133    0.08595    1.000
    H1125    H        0.15130    0.82930    0.07680    1.000
    C1126    C        0.24248    0.74719    0.14231    1.000
    H1126    H        0.26090    0.74970    0.14920    1.000
    C1127    C        0.25334    0.68355    0.10536    1.000
    H1127    H        0.25030    0.69020    0.08700    1.000
    C1128    C        0.19479    0.86991    0.03190    1.000
    H1128    H        0.20370    0.85420    0.02390    1.000
    N1692    N        0.23185    0.72271    0.13144    1.000
    Cu283    Cu       0.16280    0.27951    0.62331    1.000
    Cu284    Cu       0.22543    0.30795    0.64996    1.000
    N1693    N        0.22281    0.26647    0.64154    1.000
    N1694    N        0.19880    0.25452    0.62914    1.000
    N1695    N        0.17807    0.31541    0.60658    1.000
    N1696    N        0.20514    0.32553    0.61409    1.000
    N1697    N        0.26677    0.15799    0.64161    1.000
    N1698    N        0.26573    0.15967    0.61205    1.000
    C1129    C        0.25436    0.18064    0.65180    1.000
    H1129    H        0.25190    0.18480    0.67100    1.000
    N1699    N        0.24569    0.19704    0.62960    1.000
    C1130    C        0.20450    0.22806    0.62321    1.000
    H1130    H        0.19210    0.21510    0.61480    1.000
    N1700    N        0.18822    0.39324    0.51847    1.000
    N1701    N        0.18652    0.37232    0.55954    1.000
    N1702    N        0.17572    0.41165    0.53825    1.000
    N1703    N        0.18877    0.35141    0.57989    1.000
    C1131    C        0.21092    0.34725    0.59811    1.000
    H1131    H        0.22740    0.35820    0.59890    1.000
    C1132    C        0.17510    0.39864    0.56267    1.000
    H1132    H        0.16800    0.40620    0.57950    1.000
    C1133    C        0.16872    0.33133    0.58595    1.000
    H1133    H        0.15130    0.32930    0.57680    1.000
    C1134    C        0.24248    0.24719    0.64231    1.000
    H1134    H        0.26090    0.24970    0.64920    1.000
    C1135    C        0.25334    0.18355    0.60536    1.000
    H1135    H        0.25030    0.19020    0.58700    1.000
    C1136    C        0.19479    0.36991    0.53190    1.000
    H1136    H        0.20370    0.35420    0.52390    1.000
    N1704    N        0.23185    0.22271    0.63144    1.000
    Cu285    Cu       0.66280    0.77951    0.62331    1.000
    Cu286    Cu       0.72543    0.80795    0.64996    1.000
    N1705    N        0.72281    0.76647    0.64154    1.000
    N1706    N        0.69880    0.75452    0.62914    1.000
    N1707    N        0.67807    0.81541    0.60658    1.000
    N1708    N        0.70514    0.82553    0.61409    1.000
    N1709    N        0.76677    0.65799    0.64161    1.000
    N1710    N        0.76573    0.65967    0.61205    1.000
    C1137    C        0.75436    0.68064    0.65180    1.000
    H1137    H        0.75190    0.68480    0.67100    1.000
    N1711    N        0.74569    0.69704    0.62960    1.000
    C1138    C        0.70450    0.72806    0.62321    1.000
    H1138    H        0.69210    0.71510    0.61480    1.000
    N1712    N        0.68822    0.89324    0.51847    1.000
    N1713    N        0.68652    0.87232    0.55954    1.000
    N1714    N        0.67572    0.91165    0.53825    1.000
    N1715    N        0.68877    0.85141    0.57989    1.000
    C1139    C        0.71092    0.84725    0.59811    1.000
    H1139    H        0.72740    0.85820    0.59890    1.000
    C1140    C        0.67510    0.89864    0.56267    1.000
    H1140    H        0.66800    0.90620    0.57950    1.000
    C1141    C        0.66872    0.83133    0.58595    1.000
    H1141    H        0.65130    0.82930    0.57680    1.000
    C1142    C        0.74248    0.74719    0.64231    1.000
    H1142    H        0.76090    0.74970    0.64920    1.000
    C1143    C        0.75334    0.68355    0.60536    1.000
    H1143    H        0.75030    0.69020    0.58700    1.000
    C1144    C        0.69479    0.86991    0.53190    1.000
    H1144    H        0.70370    0.85420    0.52390    1.000
    N1716    N        0.73185    0.72271    0.63144    1.000
    Cu287    Cu       0.66280    0.27951    0.12331    1.000
    Cu288    Cu       0.72543    0.30795    0.14996    1.000
    N1717    N        0.72281    0.26647    0.14154    1.000
    N1718    N        0.69880    0.25452    0.12914    1.000
    N1719    N        0.67807    0.31541    0.10658    1.000
    N1720    N        0.70514    0.32553    0.11409    1.000
    N1721    N        0.76677    0.15799    0.14161    1.000
    N1722    N        0.76573    0.15967    0.11205    1.000
    C1145    C        0.75436    0.18064    0.15180    1.000
    H1145    H        0.75190    0.18480    0.17100    1.000
    N1723    N        0.74569    0.19704    0.12960    1.000
    C1146    C        0.70450    0.22806    0.12321    1.000
    H1146    H        0.69210    0.21510    0.11480    1.000
    N1724    N        0.68822    0.39324    0.01847    1.000
    N1725    N        0.68652    0.37232    0.05954    1.000
    N1726    N        0.67572    0.41165    0.03825    1.000
    N1727    N        0.68877    0.35141    0.07989    1.000
    C1147    C        0.71092    0.34725    0.09811    1.000
    H1147    H        0.72740    0.35820    0.09890    1.000
    C1148    C        0.67510    0.39864    0.06267    1.000
    H1148    H        0.66800    0.40620    0.07950    1.000
    C1149    C        0.66872    0.33133    0.08595    1.000
    H1149    H        0.65130    0.32930    0.07680    1.000
    C1150    C        0.74248    0.24719    0.14231    1.000
    H1150    H        0.76090    0.24970    0.14920    1.000
    C1151    C        0.75334    0.18355    0.10536    1.000
    H1151    H        0.75030    0.19020    0.08700    1.000
    C1152    C        0.69479    0.36991    0.03190    1.000
    H1152    H        0.70370    0.35420    0.02390    1.000
    N1728    N        0.73185    0.22271    0.13144    1.000
    Cu289    Cu       0.83720    0.37331    0.52951    1.000
    Cu290    Cu       0.77457    0.39996    0.55795    1.000
    N1729    N        0.77719    0.39154    0.51647    1.000
    N1730    N        0.80120    0.37914    0.50452    1.000
    N1731    N        0.82193    0.35658    0.56541    1.000
    N1732    N        0.79486    0.36409    0.57553    1.000
    N1733    N        0.73323    0.39161    0.40799    1.000
    N1734    N        0.73427    0.36205    0.40967    1.000
    C1153    C        0.74564    0.40180    0.43064    1.000
    H1153    H        0.74810    0.42100    0.43480    1.000
    N1735    N        0.75431    0.37960    0.44704    1.000
    C1154    C        0.79550    0.37321    0.47806    1.000
    H1154    H        0.80790    0.36480    0.46510    1.000
    N1736    N        0.81178    0.26847    0.64324    1.000
    N1737    N        0.81348    0.30954    0.62232    1.000
    N1738    N        0.82428    0.28825    0.66165    1.000
    N1739    N        0.81123    0.32989    0.60141    1.000
    C1155    C        0.78908    0.34811    0.59725    1.000
    H1155    H        0.77260    0.34890    0.60820    1.000
    C1156    C        0.82490    0.31267    0.64864    1.000
    H1156    H        0.83200    0.32950    0.65620    1.000
    C1157    C        0.83128    0.33595    0.58133    1.000
    H1157    H        0.84870    0.32680    0.57930    1.000
    C1158    C        0.75752    0.39231    0.49719    1.000
    H1158    H        0.73910    0.39920    0.49970    1.000
    C1159    C        0.74666    0.35536    0.43355    1.000
    H1159    H        0.74970    0.33700    0.44020    1.000
    C1160    C        0.80521    0.28190    0.61991    1.000
    H1160    H        0.79630    0.27390    0.60420    1.000
    N1740    N        0.76815    0.38144    0.47271    1.000
    Cu291    Cu       0.83720    0.87331    0.02951    1.000
    Cu292    Cu       0.77457    0.89996    0.05795    1.000
    N1741    N        0.77719    0.89154    0.01647    1.000
    N1742    N        0.80120    0.87914    0.00452    1.000
    N1743    N        0.82193    0.85658    0.06541    1.000
    N1744    N        0.79486    0.86409    0.07553    1.000
    N1745    N        0.73323    0.89161    0.90799    1.000
    N1746    N        0.73427    0.86205    0.90967    1.000
    C1161    C        0.74564    0.90180    0.93064    1.000
    H1161    H        0.74810    0.92100    0.93480    1.000
    N1747    N        0.75431    0.87960    0.94704    1.000
    C1162    C        0.79550    0.87321    0.97806    1.000
    H1162    H        0.80790    0.86480    0.96510    1.000
    N1748    N        0.81178    0.76847    0.14324    1.000
    N1749    N        0.81348    0.80954    0.12232    1.000
    N1750    N        0.82428    0.78825    0.16165    1.000
    N1751    N        0.81123    0.82989    0.10141    1.000
    C1163    C        0.78908    0.84811    0.09725    1.000
    H1163    H        0.77260    0.84890    0.10820    1.000
    C1164    C        0.82490    0.81267    0.14864    1.000
    H1164    H        0.83200    0.82950    0.15620    1.000
    C1165    C        0.83128    0.83595    0.08133    1.000
    H1165    H        0.84870    0.82680    0.07930    1.000
    C1166    C        0.75752    0.89231    0.99719    1.000
    H1166    H        0.73910    0.89920    0.99970    1.000
    C1167    C        0.74666    0.85536    0.93355    1.000
    H1167    H        0.74970    0.83700    0.94020    1.000
    C1168    C        0.80521    0.78190    0.11991    1.000
    H1168    H        0.79630    0.77390    0.10420    1.000
    N1752    N        0.76815    0.88144    0.97271    1.000
    Cu293    Cu       0.33720    0.37331    0.02951    1.000
    Cu294    Cu       0.27457    0.39996    0.05795    1.000
    N1753    N        0.27719    0.39154    0.01647    1.000
    N1754    N        0.30120    0.37914    0.00452    1.000
    N1755    N        0.32193    0.35658    0.06541    1.000
    N1756    N        0.29486    0.36409    0.07553    1.000
    N1757    N        0.23323    0.39161    0.90799    1.000
    N1758    N        0.23427    0.36205    0.90967    1.000
    C1169    C        0.24564    0.40180    0.93064    1.000
    H1169    H        0.24810    0.42100    0.93480    1.000
    N1759    N        0.25431    0.37960    0.94704    1.000
    C1170    C        0.29550    0.37321    0.97806    1.000
    H1170    H        0.30790    0.36480    0.96510    1.000
    N1760    N        0.31178    0.26847    0.14324    1.000
    N1761    N        0.31348    0.30954    0.12232    1.000
    N1762    N        0.32428    0.28825    0.16165    1.000
    N1763    N        0.31123    0.32989    0.10141    1.000
    C1171    C        0.28908    0.34811    0.09725    1.000
    H1171    H        0.27260    0.34890    0.10820    1.000
    C1172    C        0.32490    0.31267    0.14864    1.000
    H1172    H        0.33200    0.32950    0.15620    1.000
    C1173    C        0.33128    0.33595    0.08133    1.000
    H1173    H        0.34870    0.32680    0.07930    1.000
    C1174    C        0.25752    0.39231    0.99719    1.000
    H1174    H        0.23910    0.39920    0.99970    1.000
    C1175    C        0.24666    0.35536    0.93355    1.000
    H1175    H        0.24970    0.33700    0.94020    1.000
    C1176    C        0.30521    0.28190    0.11991    1.000
    H1176    H        0.29630    0.27390    0.10420    1.000
    N1764    N        0.26815    0.38144    0.97271    1.000
    Cu295    Cu       0.33720    0.87331    0.52951    1.000
    Cu296    Cu       0.27457    0.89996    0.55795    1.000
    N1765    N        0.27719    0.89154    0.51647    1.000
    N1766    N        0.30120    0.87914    0.50452    1.000
    N1767    N        0.32193    0.85658    0.56541    1.000
    N1768    N        0.29486    0.86409    0.57553    1.000
    N1769    N        0.23323    0.89161    0.40799    1.000
    N1770    N        0.23427    0.86205    0.40967    1.000
    C1177    C        0.24564    0.90180    0.43064    1.000
    H1177    H        0.24810    0.92100    0.43480    1.000
    N1771    N        0.25431    0.87960    0.44704    1.000
    C1178    C        0.29550    0.87321    0.47806    1.000
    H1178    H        0.30790    0.86480    0.46510    1.000
    N1772    N        0.31178    0.76847    0.64324    1.000
    N1773    N        0.31348    0.80954    0.62232    1.000
    N1774    N        0.32428    0.78825    0.66165    1.000
    N1775    N        0.31123    0.82989    0.60141    1.000
    C1179    C        0.28908    0.84811    0.59725    1.000
    H1179    H        0.27260    0.84890    0.60820    1.000
    C1180    C        0.32490    0.81267    0.64864    1.000
    H1180    H        0.33200    0.82950    0.65620    1.000
    C1181    C        0.33128    0.83595    0.58133    1.000
    H1181    H        0.34870    0.82680    0.57930    1.000
    C1182    C        0.25752    0.89231    0.49719    1.000
    H1182    H        0.23910    0.89920    0.49970    1.000
    C1183    C        0.24666    0.85536    0.43355    1.000
    H1183    H        0.24970    0.83700    0.44020    1.000
    C1184    C        0.30521    0.78190    0.61991    1.000
    H1184    H        0.29630    0.77390    0.60420    1.000
    N1776    N        0.26815    0.88144    0.47271    1.000
    Cu297    Cu       0.91280    0.87669    0.02951    1.000
    Cu298    Cu       0.97543    0.85004    0.05795    1.000
    N1777    N        0.97281    0.85846    0.01647    1.000
    N1778    N        0.94880    0.87086    0.00452    1.000
    N1779    N        0.92807    0.89342    0.06541    1.000
    N1780    N        0.95514    0.88591    0.07553    1.000
    N1781    N        0.01677    0.85839    0.90799    1.000
    N1782    N        0.01573    0.88795    0.90967    1.000
    C1185    C        0.00436    0.84820    0.93064    1.000
    H1185    H        0.00190    0.82900    0.93480    1.000
    N1783    N        0.99569    0.87040    0.94704    1.000
    C1186    C        0.95450    0.87679    0.97806    1.000
    H1186    H        0.94210    0.88520    0.96510    1.000
    N1784    N        0.93822    0.98153    0.14324    1.000
    N1785    N        0.93652    0.94046    0.12232    1.000
    N1786    N        0.92572    0.96175    0.16165    1.000
    N1787    N        0.93877    0.92011    0.10141    1.000
    C1187    C        0.96092    0.90189    0.09725    1.000
    H1187    H        0.97740    0.90110    0.10820    1.000
    C1188    C        0.92510    0.93733    0.14864    1.000
    H1188    H        0.91800    0.92050    0.15620    1.000
    C1189    C        0.91872    0.91405    0.08133    1.000
    H1189    H        0.90130    0.92320    0.07930    1.000
    C1190    C        0.99248    0.85769    0.99719    1.000
    H1190    H        0.01090    0.85080    0.99970    1.000
    C1191    C        0.00334    0.89464    0.93355    1.000
    H1191    H        0.00030    0.91300    0.94020    1.000
    C1192    C        0.94479    0.96810    0.11991    1.000
    H1192    H        0.95370    0.97610    0.10420    1.000
    N1788    N        0.98185    0.86856    0.97271    1.000
    Cu299    Cu       0.91280    0.37669    0.52951    1.000
    Cu300    Cu       0.97543    0.35004    0.55795    1.000
    N1789    N        0.97281    0.35846    0.51647    1.000
    N1790    N        0.94880    0.37086    0.50452    1.000
    N1791    N        0.92807    0.39342    0.56541    1.000
    N1792    N        0.95514    0.38591    0.57553    1.000
    N1793    N        0.01677    0.35839    0.40799    1.000
    N1794    N        0.01573    0.38795    0.40967    1.000
    C1193    C        0.00436    0.34820    0.43064    1.000
    H1193    H        0.00190    0.32900    0.43480    1.000
    N1795    N        0.99569    0.37040    0.44704    1.000
    C1194    C        0.95450    0.37679    0.47806    1.000
    H1194    H        0.94210    0.38520    0.46510    1.000
    N1796    N        0.93822    0.48153    0.64324    1.000
    N1797    N        0.93652    0.44046    0.62232    1.000
    N1798    N        0.92572    0.46175    0.66165    1.000
    N1799    N        0.93877    0.42011    0.60141    1.000
    C1195    C        0.96092    0.40189    0.59725    1.000
    H1195    H        0.97740    0.40110    0.60820    1.000
    C1196    C        0.92510    0.43733    0.64864    1.000
    H1196    H        0.91800    0.42050    0.65620    1.000
    C1197    C        0.91872    0.41405    0.58133    1.000
    H1197    H        0.90130    0.42320    0.57930    1.000
    C1198    C        0.99248    0.35769    0.49719    1.000
    H1198    H        0.01090    0.35080    0.49970    1.000
    C1199    C        0.00334    0.39464    0.43355    1.000
    H1199    H        0.00030    0.41300    0.44020    1.000
    C1200    C        0.94479    0.46810    0.61991    1.000
    H1200    H        0.95370    0.47610    0.60420    1.000
    N1800    N        0.98185    0.36856    0.47271    1.000
    Cu301    Cu       0.41280    0.87669    0.52951    1.000
    Cu302    Cu       0.47543    0.85004    0.55795    1.000
    N1801    N        0.47281    0.85846    0.51647    1.000
    N1802    N        0.44880    0.87086    0.50452    1.000
    N1803    N        0.42807    0.89342    0.56541    1.000
    N1804    N        0.45514    0.88591    0.57553    1.000
    N1805    N        0.51677    0.85839    0.40799    1.000
    N1806    N        0.51573    0.88795    0.40967    1.000
    C1201    C        0.50436    0.84820    0.43064    1.000
    H1201    H        0.50190    0.82900    0.43480    1.000
    N1807    N        0.49569    0.87040    0.44704    1.000
    C1202    C        0.45450    0.87679    0.47806    1.000
    H1202    H        0.44210    0.88520    0.46510    1.000
    N1808    N        0.43822    0.98153    0.64324    1.000
    N1809    N        0.43652    0.94046    0.62232    1.000
    N1810    N        0.42572    0.96175    0.66165    1.000
    N1811    N        0.43877    0.92011    0.60141    1.000
    C1203    C        0.46092    0.90189    0.59725    1.000
    H1203    H        0.47740    0.90110    0.60820    1.000
    C1204    C        0.42510    0.93733    0.64864    1.000
    H1204    H        0.41800    0.92050    0.65620    1.000
    C1205    C        0.41872    0.91405    0.58133    1.000
    H1205    H        0.40130    0.92320    0.57930    1.000
    C1206    C        0.49248    0.85769    0.49719    1.000
    H1206    H        0.51090    0.85080    0.49970    1.000
    C1207    C        0.50334    0.89464    0.43355    1.000
    H1207    H        0.50030    0.91300    0.44020    1.000
    C1208    C        0.44479    0.96810    0.61991    1.000
    H1208    H        0.45370    0.97610    0.60420    1.000
    N1812    N        0.48185    0.86856    0.47271    1.000
    Cu303    Cu       0.41280    0.37669    0.02951    1.000
    Cu304    Cu       0.47543    0.35004    0.05795    1.000
    N1813    N        0.47281    0.35846    0.01647    1.000
    N1814    N        0.44880    0.37086    0.00452    1.000
    N1815    N        0.42807    0.39342    0.06541    1.000
    N1816    N        0.45514    0.38591    0.07553    1.000
    N1817    N        0.51677    0.35839    0.90799    1.000
    N1818    N        0.51573    0.38795    0.90967    1.000
    C1209    C        0.50436    0.34820    0.93064    1.000
    H1209    H        0.50190    0.32900    0.93480    1.000
    N1819    N        0.49569    0.37040    0.94704    1.000
    C1210    C        0.45450    0.37679    0.97806    1.000
    H1210    H        0.44210    0.38520    0.96510    1.000
    N1820    N        0.43822    0.48153    0.14324    1.000
    N1821    N        0.43652    0.44046    0.12232    1.000
    N1822    N        0.42572    0.46175    0.16165    1.000
    N1823    N        0.43877    0.42011    0.10141    1.000
    C1211    C        0.46092    0.40189    0.09725    1.000
    H1211    H        0.47740    0.40110    0.10820    1.000
    C1212    C        0.42510    0.43733    0.14864    1.000
    H1212    H        0.41800    0.42050    0.15620    1.000
    C1213    C        0.41872    0.41405    0.08133    1.000
    H1213    H        0.40130    0.42320    0.07930    1.000
    C1214    C        0.49248    0.35769    0.99719    1.000
    H1214    H        0.51090    0.35080    0.99970    1.000
    C1215    C        0.50334    0.39464    0.93355    1.000
    H1215    H        0.50030    0.41300    0.94020    1.000
    C1216    C        0.44479    0.46810    0.11991    1.000
    H1216    H        0.45370    0.47610    0.10420    1.000
    N1824    N        0.48185    0.36856    0.97271    1.000
    Cu305    Cu       0.33720    0.37669    0.72050    1.000
    Cu306    Cu       0.27457    0.35004    0.69205    1.000
    N1825    N        0.27719    0.35846    0.73353    1.000
    N1826    N        0.30120    0.37086    0.74548    1.000
    N1827    N        0.32193    0.39342    0.68459    1.000
    N1828    N        0.29486    0.38591    0.67447    1.000
    N1829    N        0.23323    0.35839    0.84201    1.000
    N1830    N        0.23427    0.38795    0.84033    1.000
    C1217    C        0.24564    0.34820    0.81936    1.000
    H1217    H        0.24810    0.32900    0.81520    1.000
    N1831    N        0.25431    0.37040    0.80296    1.000
    C1218    C        0.29550    0.37679    0.77194    1.000
    H1218    H        0.30790    0.38520    0.78490    1.000
    N1832    N        0.31178    0.48153    0.60676    1.000
    N1833    N        0.31348    0.44046    0.62768    1.000
    N1834    N        0.32428    0.46175    0.58835    1.000
    N1835    N        0.31123    0.42011    0.64859    1.000
    C1219    C        0.28908    0.40189    0.65275    1.000
    H1219    H        0.27260    0.40110    0.64180    1.000
    C1220    C        0.32490    0.43733    0.60136    1.000
    H1220    H        0.33200    0.42050    0.59380    1.000
    C1221    C        0.33128    0.41405    0.66867    1.000
    H1221    H        0.34870    0.42320    0.67070    1.000
    C1222    C        0.25752    0.35769    0.75281    1.000
    H1222    H        0.23910    0.35080    0.75030    1.000
    C1223    C        0.24666    0.39464    0.81645    1.000
    H1223    H        0.24970    0.41300    0.80980    1.000
    C1224    C        0.30521    0.46810    0.63009    1.000
    H1224    H        0.29630    0.47610    0.64580    1.000
    N1836    N        0.26815    0.36856    0.77729    1.000
    Cu307    Cu       0.33720    0.87669    0.22050    1.000
    Cu308    Cu       0.27457    0.85004    0.19205    1.000
    N1837    N        0.27719    0.85846    0.23353    1.000
    N1838    N        0.30120    0.87086    0.24548    1.000
    N1839    N        0.32193    0.89342    0.18459    1.000
    N1840    N        0.29486    0.88591    0.17447    1.000
    N1841    N        0.23323    0.85839    0.34201    1.000
    N1842    N        0.23427    0.88795    0.34033    1.000
    C1225    C        0.24564    0.84820    0.31936    1.000
    H1225    H        0.24810    0.82900    0.31520    1.000
    N1843    N        0.25431    0.87040    0.30296    1.000
    C1226    C        0.29550    0.87679    0.27194    1.000
    H1226    H        0.30790    0.88520    0.28490    1.000
    N1844    N        0.31178    0.98153    0.10676    1.000
    N1845    N        0.31348    0.94046    0.12768    1.000
    N1846    N        0.32428    0.96175    0.08835    1.000
    N1847    N        0.31123    0.92011    0.14859    1.000
    C1227    C        0.28908    0.90189    0.15275    1.000
    H1227    H        0.27260    0.90110    0.14180    1.000
    C1228    C        0.32490    0.93733    0.10136    1.000
    H1228    H        0.33200    0.92050    0.09380    1.000
    C1229    C        0.33128    0.91405    0.16867    1.000
    H1229    H        0.34870    0.92320    0.17070    1.000
    C1230    C        0.25752    0.85769    0.25281    1.000
    H1230    H        0.23910    0.85080    0.25030    1.000
    C1231    C        0.24666    0.89464    0.31645    1.000
    H1231    H        0.24970    0.91300    0.30980    1.000
    C1232    C        0.30521    0.96810    0.13009    1.000
    H1232    H        0.29630    0.97610    0.14580    1.000
    N1848    N        0.26815    0.86856    0.27729    1.000
    Cu309    Cu       0.83720    0.37669    0.22050    1.000
    Cu310    Cu       0.77457    0.35004    0.19205    1.000
    N1849    N        0.77719    0.35846    0.23353    1.000
    N1850    N        0.80120    0.37086    0.24548    1.000
    N1851    N        0.82193    0.39342    0.18459    1.000
    N1852    N        0.79486    0.38591    0.17447    1.000
    N1853    N        0.73323    0.35839    0.34201    1.000
    N1854    N        0.73427    0.38795    0.34033    1.000
    C1233    C        0.74564    0.34820    0.31936    1.000
    H1233    H        0.74810    0.32900    0.31520    1.000
    N1855    N        0.75431    0.37040    0.30296    1.000
    C1234    C        0.79550    0.37679    0.27194    1.000
    H1234    H        0.80790    0.38520    0.28490    1.000
    N1856    N        0.81178    0.48153    0.10676    1.000
    N1857    N        0.81348    0.44046    0.12768    1.000
    N1858    N        0.82428    0.46175    0.08835    1.000
    N1859    N        0.81123    0.42011    0.14859    1.000
    C1235    C        0.78908    0.40189    0.15275    1.000
    H1235    H        0.77260    0.40110    0.14180    1.000
    C1236    C        0.82490    0.43733    0.10136    1.000
    H1236    H        0.83200    0.42050    0.09380    1.000
    C1237    C        0.83128    0.41405    0.16867    1.000
    H1237    H        0.84870    0.42320    0.17070    1.000
    C1238    C        0.75752    0.35769    0.25281    1.000
    H1238    H        0.73910    0.35080    0.25030    1.000
    C1239    C        0.74666    0.39464    0.31645    1.000
    H1239    H        0.74970    0.41300    0.30980    1.000
    C1240    C        0.80521    0.46810    0.13009    1.000
    H1240    H        0.79630    0.47610    0.14580    1.000
    N1860    N        0.76815    0.36856    0.27729    1.000
    Cu311    Cu       0.83720    0.87669    0.72050    1.000
    Cu312    Cu       0.77457    0.85004    0.69205    1.000
    N1861    N        0.77719    0.85846    0.73353    1.000
    N1862    N        0.80120    0.87086    0.74548    1.000
    N1863    N        0.82193    0.89342    0.68459    1.000
    N1864    N        0.79486    0.88591    0.67447    1.000
    N1865    N        0.73323    0.85839    0.84201    1.000
    N1866    N        0.73427    0.88795    0.84033    1.000
    C1241    C        0.74564    0.84820    0.81936    1.000
    H1241    H        0.74810    0.82900    0.81520    1.000
    N1867    N        0.75431    0.87040    0.80296    1.000
    C1242    C        0.79550    0.87679    0.77194    1.000
    H1242    H        0.80790    0.88520    0.78490    1.000
    N1868    N        0.81178    0.98153    0.60676    1.000
    N1869    N        0.81348    0.94046    0.62768    1.000
    N1870    N        0.82428    0.96175    0.58835    1.000
    N1871    N        0.81123    0.92011    0.64859    1.000
    C1243    C        0.78908    0.90189    0.65275    1.000
    H1243    H        0.77260    0.90110    0.64180    1.000
    C1244    C        0.82490    0.93733    0.60136    1.000
    H1244    H        0.83200    0.92050    0.59380    1.000
    C1245    C        0.83128    0.91405    0.66867    1.000
    H1245    H        0.84870    0.92320    0.67070    1.000
    C1246    C        0.75752    0.85769    0.75281    1.000
    H1246    H        0.73910    0.85080    0.75030    1.000
    C1247    C        0.74666    0.89464    0.81645    1.000
    H1247    H        0.74970    0.91300    0.80980    1.000
    C1248    C        0.80521    0.96810    0.63009    1.000
    H1248    H        0.79630    0.97610    0.64580    1.000
    N1872    N        0.76815    0.86856    0.77729    1.000
    Cu313    Cu       0.41280    0.87331    0.22050    1.000
    Cu314    Cu       0.47543    0.89996    0.19205    1.000
    N1873    N        0.47281    0.89154    0.23353    1.000
    N1874    N        0.44880    0.87914    0.24548    1.000
    N1875    N        0.42807    0.85658    0.18459    1.000
    N1876    N        0.45514    0.86409    0.17447    1.000
    N1877    N        0.51677    0.89161    0.34201    1.000
    N1878    N        0.51573    0.86205    0.34033    1.000
    C1249    C        0.50436    0.90180    0.31936    1.000
    H1249    H        0.50190    0.92100    0.31520    1.000
    N1879    N        0.49569    0.87960    0.30296    1.000
    C1250    C        0.45450    0.87321    0.27194    1.000
    H1250    H        0.44210    0.86480    0.28490    1.000
    N1880    N        0.43822    0.76847    0.10676    1.000
    N1881    N        0.43652    0.80954    0.12768    1.000
    N1882    N        0.42572    0.78825    0.08835    1.000
    N1883    N        0.43877    0.82989    0.14859    1.000
    C1251    C        0.46092    0.84811    0.15275    1.000
    H1251    H        0.47740    0.84890    0.14180    1.000
    C1252    C        0.42510    0.81267    0.10136    1.000
    H1252    H        0.41800    0.82950    0.09380    1.000
    C1253    C        0.41872    0.83595    0.16867    1.000
    H1253    H        0.40130    0.82680    0.17070    1.000
    C1254    C        0.49248    0.89231    0.25281    1.000
    H1254    H        0.51090    0.89920    0.25030    1.000
    C1255    C        0.50334    0.85536    0.31645    1.000
    H1255    H        0.50030    0.83700    0.30980    1.000
    C1256    C        0.44479    0.78190    0.13009    1.000
    H1256    H        0.45370    0.77390    0.14580    1.000
    N1884    N        0.48185    0.88144    0.27729    1.000
    Cu315    Cu       0.41280    0.37331    0.72050    1.000
    Cu316    Cu       0.47543    0.39996    0.69205    1.000
    N1885    N        0.47281    0.39154    0.73353    1.000
    N1886    N        0.44880    0.37914    0.74548    1.000
    N1887    N        0.42807    0.35658    0.68459    1.000
    N1888    N        0.45514    0.36409    0.67447    1.000
    N1889    N        0.51677    0.39161    0.84201    1.000
    N1890    N        0.51573    0.36205    0.84033    1.000
    C1257    C        0.50436    0.40180    0.81936    1.000
    H1257    H        0.50190    0.42100    0.81520    1.000
    N1891    N        0.49569    0.37960    0.80296    1.000
    C1258    C        0.45450    0.37321    0.77194    1.000
    H1258    H        0.44210    0.36480    0.78490    1.000
    N1892    N        0.43822    0.26847    0.60676    1.000
    N1893    N        0.43652    0.30954    0.62768    1.000
    N1894    N        0.42572    0.28825    0.58835    1.000
    N1895    N        0.43877    0.32989    0.64859    1.000
    C1259    C        0.46092    0.34811    0.65275    1.000
    H1259    H        0.47740    0.34890    0.64180    1.000
    C1260    C        0.42510    0.31267    0.60136    1.000
    H1260    H        0.41800    0.32950    0.59380    1.000
    C1261    C        0.41872    0.33595    0.66867    1.000
    H1261    H        0.40130    0.32680    0.67070    1.000
    C1262    C        0.49248    0.39231    0.75281    1.000
    H1262    H        0.51090    0.39920    0.75030    1.000
    C1263    C        0.50334    0.35536    0.81645    1.000
    H1263    H        0.50030    0.33700    0.80980    1.000
    C1264    C        0.44479    0.28190    0.63009    1.000
    H1264    H        0.45370    0.27390    0.64580    1.000
    N1896    N        0.48185    0.38144    0.77729    1.000
    Cu317    Cu       0.91280    0.87331    0.72050    1.000
    Cu318    Cu       0.97543    0.89996    0.69205    1.000
    N1897    N        0.97281    0.89154    0.73353    1.000
    N1898    N        0.94880    0.87914    0.74548    1.000
    N1899    N        0.92807    0.85658    0.68459    1.000
    N1900    N        0.95514    0.86409    0.67447    1.000
    N1901    N        0.01677    0.89161    0.84201    1.000
    N1902    N        0.01573    0.86205    0.84033    1.000
    C1265    C        0.00436    0.90180    0.81936    1.000
    H1265    H        0.00190    0.92100    0.81520    1.000
    N1903    N        0.99569    0.87960    0.80296    1.000
    C1266    C        0.95450    0.87321    0.77194    1.000
    H1266    H        0.94210    0.86480    0.78490    1.000
    N1904    N        0.93822    0.76847    0.60676    1.000
    N1905    N        0.93652    0.80954    0.62768    1.000
    N1906    N        0.92572    0.78825    0.58835    1.000
    N1907    N        0.93877    0.82989    0.64859    1.000
    C1267    C        0.96092    0.84811    0.65275    1.000
    H1267    H        0.97740    0.84890    0.64180    1.000
    C1268    C        0.92510    0.81267    0.60136    1.000
    H1268    H        0.91800    0.82950    0.59380    1.000
    C1269    C        0.91872    0.83595    0.66867    1.000
    H1269    H        0.90130    0.82680    0.67070    1.000
    C1270    C        0.99248    0.89231    0.75281    1.000
    H1270    H        0.01090    0.89920    0.75030    1.000
    C1271    C        0.00334    0.85536    0.81645    1.000
    H1271    H        0.00030    0.83700    0.80980    1.000
    C1272    C        0.94479    0.78190    0.63009    1.000
    H1272    H        0.95370    0.77390    0.64580    1.000
    N1908    N        0.98185    0.88144    0.77729    1.000
    Cu319    Cu       0.91280    0.37331    0.22050    1.000
    Cu320    Cu       0.97543    0.39996    0.19205    1.000
    N1909    N        0.97281    0.39154    0.23353    1.000
    N1910    N        0.94880    0.37914    0.24548    1.000
    N1911    N        0.92807    0.35658    0.18459    1.000
    N1912    N        0.95514    0.36409    0.17447    1.000
    N1913    N        0.01677    0.39161    0.34201    1.000
    N1914    N        0.01573    0.36205    0.34033    1.000
    C1273    C        0.00436    0.40180    0.31936    1.000
    H1273    H        0.00190    0.42100    0.31520    1.000
    N1915    N        0.99569    0.37960    0.30296    1.000
    C1274    C        0.95450    0.37321    0.27194    1.000
    H1274    H        0.94210    0.36480    0.28490    1.000
    N1916    N        0.93822    0.26847    0.10676    1.000
    N1917    N        0.93652    0.30954    0.12768    1.000
    N1918    N        0.92572    0.28825    0.08835    1.000
    N1919    N        0.93877    0.32989    0.14859    1.000
    C1275    C        0.96092    0.34811    0.15275    1.000
    H1275    H        0.97740    0.34890    0.14180    1.000
    C1276    C        0.92510    0.31267    0.10136    1.000
    H1276    H        0.91800    0.32950    0.09380    1.000
    C1277    C        0.91872    0.33595    0.16867    1.000
    H1277    H        0.90130    0.32680    0.17070    1.000
    C1278    C        0.99248    0.39231    0.25281    1.000
    H1278    H        0.01090    0.39920    0.25030    1.000
    C1279    C        0.00334    0.35536    0.31645    1.000
    H1279    H        0.00030    0.33700    0.30980    1.000
    C1280    C        0.94479    0.28190    0.13009    1.000
    H1280    H        0.95370    0.27390    0.14580    1.000
    N1920    N        0.98185    0.38144    0.27729    1.000
    Cu321    Cu       0.87331    0.22050    0.41280    1.000
    Cu322    Cu       0.89996    0.19205    0.47543    1.000
    N1921    N        0.89154    0.23353    0.47281    1.000
    N1922    N        0.87914    0.24548    0.44880    1.000
    N1923    N        0.85658    0.18459    0.42807    1.000
    N1924    N        0.86409    0.17447    0.45514    1.000
    N1925    N        0.89161    0.34201    0.51677    1.000
    N1926    N        0.86205    0.34033    0.51573    1.000
    C1281    C        0.90180    0.31936    0.50436    1.000
    H1281    H        0.92100    0.31520    0.50190    1.000
    N1927    N        0.87960    0.30296    0.49569    1.000
    C1282    C        0.87321    0.27194    0.45450    1.000
    H1282    H        0.86480    0.28490    0.44210    1.000
    N1928    N        0.76847    0.10676    0.43822    1.000
    N1929    N        0.80954    0.12768    0.43652    1.000
    N1930    N        0.78825    0.08835    0.42572    1.000
    N1931    N        0.82989    0.14859    0.43877    1.000
    C1283    C        0.84811    0.15275    0.46092    1.000
    H1283    H        0.84890    0.14180    0.47740    1.000
    C1284    C        0.81267    0.10136    0.42510    1.000
    H1284    H        0.82950    0.09380    0.41800    1.000
    C1285    C        0.83595    0.16867    0.41872    1.000
    H1285    H        0.82680    0.17070    0.40130    1.000
    C1286    C        0.89231    0.25281    0.49248    1.000
    H1286    H        0.89920    0.25030    0.51090    1.000
    C1287    C        0.85536    0.31645    0.50334    1.000
    H1287    H        0.83700    0.30980    0.50030    1.000
    C1288    C        0.78190    0.13009    0.44479    1.000
    H1288    H        0.77390    0.14580    0.45370    1.000
    N1932    N        0.88144    0.27729    0.48185    1.000
    Cu323    Cu       0.87331    0.72050    0.91280    1.000
    Cu324    Cu       0.89996    0.69205    0.97543    1.000
    N1933    N        0.89154    0.73353    0.97281    1.000
    N1934    N        0.87914    0.74548    0.94880    1.000
    N1935    N        0.85658    0.68459    0.92807    1.000
    N1936    N        0.86409    0.67447    0.95514    1.000
    N1937    N        0.89161    0.84201    0.01677    1.000
    N1938    N        0.86205    0.84033    0.01573    1.000
    C1289    C        0.90180    0.81936    0.00436    1.000
    H1289    H        0.92100    0.81520    0.00190    1.000
    N1939    N        0.87960    0.80296    0.99569    1.000
    C1290    C        0.87321    0.77194    0.95450    1.000
    H1290    H        0.86480    0.78490    0.94210    1.000
    N1940    N        0.76847    0.60676    0.93822    1.000
    N1941    N        0.80954    0.62768    0.93652    1.000
    N1942    N        0.78825    0.58835    0.92572    1.000
    N1943    N        0.82989    0.64859    0.93877    1.000
    C1291    C        0.84811    0.65275    0.96092    1.000
    H1291    H        0.84890    0.64180    0.97740    1.000
    C1292    C        0.81267    0.60136    0.92510    1.000
    H1292    H        0.82950    0.59380    0.91800    1.000
    C1293    C        0.83595    0.66867    0.91872    1.000
    H1293    H        0.82680    0.67070    0.90130    1.000
    C1294    C        0.89231    0.75281    0.99248    1.000
    H1294    H        0.89920    0.75030    0.01090    1.000
    C1295    C        0.85536    0.81645    0.00334    1.000
    H1295    H        0.83700    0.80980    0.00030    1.000
    C1296    C        0.78190    0.63009    0.94479    1.000
    H1296    H        0.77390    0.64580    0.95370    1.000
    N1944    N        0.88144    0.77729    0.98185    1.000
    Cu325    Cu       0.37331    0.22050    0.91280    1.000
    Cu326    Cu       0.39996    0.19205    0.97543    1.000
    N1945    N        0.39154    0.23353    0.97281    1.000
    N1946    N        0.37914    0.24548    0.94880    1.000
    N1947    N        0.35658    0.18459    0.92807    1.000
    N1948    N        0.36409    0.17447    0.95514    1.000
    N1949    N        0.39161    0.34201    0.01677    1.000
    N1950    N        0.36205    0.34033    0.01573    1.000
    C1297    C        0.40180    0.31936    0.00436    1.000
    H1297    H        0.42100    0.31520    0.00190    1.000
    N1951    N        0.37960    0.30296    0.99569    1.000
    C1298    C        0.37321    0.27194    0.95450    1.000
    H1298    H        0.36480    0.28490    0.94210    1.000
    N1952    N        0.26847    0.10676    0.93822    1.000
    N1953    N        0.30954    0.12768    0.93652    1.000
    N1954    N        0.28825    0.08835    0.92572    1.000
    N1955    N        0.32989    0.14859    0.93877    1.000
    C1299    C        0.34811    0.15275    0.96092    1.000
    H1299    H        0.34890    0.14180    0.97740    1.000
    C1300    C        0.31267    0.10136    0.92510    1.000
    H1300    H        0.32950    0.09380    0.91800    1.000
    C1301    C        0.33595    0.16867    0.91872    1.000
    H1301    H        0.32680    0.17070    0.90130    1.000
    C1302    C        0.39231    0.25281    0.99248    1.000
    H1302    H        0.39920    0.25030    0.01090    1.000
    C1303    C        0.35536    0.31645    0.00334    1.000
    H1303    H        0.33700    0.30980    0.00030    1.000
    C1304    C        0.28190    0.13009    0.94479    1.000
    H1304    H        0.27390    0.14580    0.95370    1.000
    N1956    N        0.38144    0.27729    0.98185    1.000
    Cu327    Cu       0.37331    0.72050    0.41280    1.000
    Cu328    Cu       0.39996    0.69205    0.47543    1.000
    N1957    N        0.39154    0.73353    0.47281    1.000
    N1958    N        0.37914    0.74548    0.44880    1.000
    N1959    N        0.35658    0.68459    0.42807    1.000
    N1960    N        0.36409    0.67447    0.45514    1.000
    N1961    N        0.39161    0.84201    0.51677    1.000
    N1962    N        0.36205    0.84033    0.51573    1.000
    C1305    C        0.40180    0.81936    0.50436    1.000
    H1305    H        0.42100    0.81520    0.50190    1.000
    N1963    N        0.37960    0.80296    0.49569    1.000
    C1306    C        0.37321    0.77194    0.45450    1.000
    H1306    H        0.36480    0.78490    0.44210    1.000
    N1964    N        0.26847    0.60676    0.43822    1.000
    N1965    N        0.30954    0.62768    0.43652    1.000
    N1966    N        0.28825    0.58835    0.42572    1.000
    N1967    N        0.32989    0.64859    0.43877    1.000
    C1307    C        0.34811    0.65275    0.46092    1.000
    H1307    H        0.34890    0.64180    0.47740    1.000
    C1308    C        0.31267    0.60136    0.42510    1.000
    H1308    H        0.32950    0.59380    0.41800    1.000
    C1309    C        0.33595    0.66867    0.41872    1.000
    H1309    H        0.32680    0.67070    0.40130    1.000
    C1310    C        0.39231    0.75281    0.49248    1.000
    H1310    H        0.39920    0.75030    0.51090    1.000
    C1311    C        0.35536    0.81645    0.50334    1.000
    H1311    H        0.33700    0.80980    0.50030    1.000
    C1312    C        0.28190    0.63009    0.44479    1.000
    H1312    H        0.27390    0.64580    0.45370    1.000
    N1968    N        0.38144    0.77729    0.48185    1.000
    Cu329    Cu       0.37669    0.72050    0.33720    1.000
    Cu330    Cu       0.35004    0.69205    0.27457    1.000
    N1969    N        0.35846    0.73353    0.27719    1.000
    N1970    N        0.37086    0.74548    0.30120    1.000
    N1971    N        0.39342    0.68459    0.32193    1.000
    N1972    N        0.38591    0.67447    0.29486    1.000
    N1973    N        0.35839    0.84201    0.23323    1.000
    N1974    N        0.38795    0.84033    0.23427    1.000
    C1313    C        0.34820    0.81936    0.24564    1.000
    H1313    H        0.32900    0.81520    0.24810    1.000
    N1975    N        0.37040    0.80296    0.25431    1.000
    C1314    C        0.37679    0.77194    0.29550    1.000
    H1314    H        0.38520    0.78490    0.30790    1.000
    N1976    N        0.48153    0.60676    0.31178    1.000
    N1977    N        0.44046    0.62768    0.31348    1.000
    N1978    N        0.46175    0.58835    0.32428    1.000
    N1979    N        0.42011    0.64859    0.31123    1.000
    C1315    C        0.40189    0.65275    0.28908    1.000
    H1315    H        0.40110    0.64180    0.27260    1.000
    C1316    C        0.43733    0.60136    0.32490    1.000
    H1316    H        0.42050    0.59380    0.33200    1.000
    C1317    C        0.41405    0.66867    0.33128    1.000
    H1317    H        0.42320    0.67070    0.34870    1.000
    C1318    C        0.35769    0.75281    0.25752    1.000
    H1318    H        0.35080    0.75030    0.23910    1.000
    C1319    C        0.39464    0.81645    0.24666    1.000
    H1319    H        0.41300    0.80980    0.24970    1.000
    C1320    C        0.46810    0.63009    0.30521    1.000
    H1320    H        0.47610    0.64580    0.29630    1.000
    N1980    N        0.36856    0.77729    0.26815    1.000
    Cu331    Cu       0.37669    0.22050    0.83720    1.000
    Cu332    Cu       0.35004    0.19205    0.77457    1.000
    N1981    N        0.35846    0.23353    0.77719    1.000
    N1982    N        0.37086    0.24548    0.80120    1.000
    N1983    N        0.39342    0.18459    0.82193    1.000
    N1984    N        0.38591    0.17447    0.79486    1.000
    N1985    N        0.35839    0.34201    0.73323    1.000
    N1986    N        0.38795    0.34033    0.73427    1.000
    C1321    C        0.34820    0.31936    0.74564    1.000
    H1321    H        0.32900    0.31520    0.74810    1.000
    N1987    N        0.37040    0.30296    0.75431    1.000
    C1322    C        0.37679    0.27194    0.79550    1.000
    H1322    H        0.38520    0.28490    0.80790    1.000
    N1988    N        0.48153    0.10676    0.81178    1.000
    N1989    N        0.44046    0.12768    0.81348    1.000
    N1990    N        0.46175    0.08835    0.82428    1.000
    N1991    N        0.42011    0.14859    0.81123    1.000
    C1323    C        0.40189    0.15275    0.78908    1.000
    H1323    H        0.40110    0.14180    0.77260    1.000
    C1324    C        0.43733    0.10136    0.82490    1.000
    H1324    H        0.42050    0.09380    0.83200    1.000
    C1325    C        0.41405    0.16867    0.83128    1.000
    H1325    H        0.42320    0.17070    0.84870    1.000
    C1326    C        0.35769    0.25281    0.75752    1.000
    H1326    H        0.35080    0.25030    0.73910    1.000
    C1327    C        0.39464    0.31645    0.74666    1.000
    H1327    H        0.41300    0.30980    0.74970    1.000
    C1328    C        0.46810    0.13009    0.80521    1.000
    H1328    H        0.47610    0.14580    0.79630    1.000
    N1992    N        0.36856    0.27729    0.76815    1.000
    Cu333    Cu       0.87669    0.72050    0.83720    1.000
    Cu334    Cu       0.85004    0.69205    0.77457    1.000
    N1993    N        0.85846    0.73353    0.77719    1.000
    N1994    N        0.87086    0.74548    0.80120    1.000
    N1995    N        0.89342    0.68459    0.82193    1.000
    N1996    N        0.88591    0.67447    0.79486    1.000
    N1997    N        0.85839    0.84201    0.73323    1.000
    N1998    N        0.88795    0.84033    0.73427    1.000
    C1329    C        0.84820    0.81936    0.74564    1.000
    H1329    H        0.82900    0.81520    0.74810    1.000
    N1999    N        0.87040    0.80296    0.75431    1.000
    C1330    C        0.87679    0.77194    0.79550    1.000
    H1330    H        0.88520    0.78490    0.80790    1.000
    N2000    N        0.98153    0.60676    0.81178    1.000
    N2001    N        0.94046    0.62768    0.81348    1.000
    N2002    N        0.96175    0.58835    0.82428    1.000
    N2003    N        0.92011    0.64859    0.81123    1.000
    C1331    C        0.90189    0.65275    0.78908    1.000
    H1331    H        0.90110    0.64180    0.77260    1.000
    C1332    C        0.93733    0.60136    0.82490    1.000
    H1332    H        0.92050    0.59380    0.83200    1.000
    C1333    C        0.91405    0.66867    0.83128    1.000
    H1333    H        0.92320    0.67070    0.84870    1.000
    C1334    C        0.85769    0.75281    0.75752    1.000
    H1334    H        0.85080    0.75030    0.73910    1.000
    C1335    C        0.89464    0.81645    0.74666    1.000
    H1335    H        0.91300    0.80980    0.74970    1.000
    C1336    C        0.96810    0.63009    0.80521    1.000
    H1336    H        0.97610    0.64580    0.79630    1.000
    N2004    N        0.86856    0.77729    0.76815    1.000
    Cu335    Cu       0.87669    0.22050    0.33720    1.000
    Cu336    Cu       0.85004    0.19205    0.27457    1.000
    N2005    N        0.85846    0.23353    0.27719    1.000
    N2006    N        0.87086    0.24548    0.30120    1.000
    N2007    N        0.89342    0.18459    0.32193    1.000
    N2008    N        0.88591    0.17447    0.29486    1.000
    N2009    N        0.85839    0.34201    0.23323    1.000
    N2010    N        0.88795    0.34033    0.23427    1.000
    C1337    C        0.84820    0.31936    0.24564    1.000
    H1337    H        0.82900    0.31520    0.24810    1.000
    N2011    N        0.87040    0.30296    0.25431    1.000
    C1338    C        0.87679    0.27194    0.29550    1.000
    H1338    H        0.88520    0.28490    0.30790    1.000
    N2012    N        0.98153    0.10676    0.31178    1.000
    N2013    N        0.94046    0.12768    0.31348    1.000
    N2014    N        0.96175    0.08835    0.32428    1.000
    N2015    N        0.92011    0.14859    0.31123    1.000
    C1339    C        0.90189    0.15275    0.28908    1.000
    H1339    H        0.90110    0.14180    0.27260    1.000
    C1340    C        0.93733    0.10136    0.32490    1.000
    H1340    H        0.92050    0.09380    0.33200    1.000
    C1341    C        0.91405    0.16867    0.33128    1.000
    H1341    H        0.92320    0.17070    0.34870    1.000
    C1342    C        0.85769    0.25281    0.25752    1.000
    H1342    H        0.85080    0.25030    0.23910    1.000
    C1343    C        0.89464    0.31645    0.24666    1.000
    H1343    H        0.91300    0.30980    0.24970    1.000
    C1344    C        0.96810    0.13009    0.30521    1.000
    H1344    H        0.97610    0.14580    0.29630    1.000
    N2016    N        0.86856    0.27729    0.26815    1.000
    Cu337    Cu       0.87669    0.02951    0.91280    1.000
    Cu338    Cu       0.85004    0.05795    0.97543    1.000
    N2017    N        0.85846    0.01647    0.97281    1.000
    N2018    N        0.87086    0.00452    0.94880    1.000
    N2019    N        0.89342    0.06541    0.92807    1.000
    N2020    N        0.88591    0.07553    0.95514    1.000
    N2021    N        0.85839    0.90799    0.01677    1.000
    N2022    N        0.88795    0.90967    0.01573    1.000
    C1345    C        0.84820    0.93064    0.00436    1.000
    H1345    H        0.82900    0.93480    0.00190    1.000
    N2023    N        0.87040    0.94704    0.99569    1.000
    C1346    C        0.87679    0.97806    0.95450    1.000
    H1346    H        0.88520    0.96510    0.94210    1.000
    N2024    N        0.98153    0.14324    0.93822    1.000
    N2025    N        0.94046    0.12232    0.93652    1.000
    N2026    N        0.96175    0.16165    0.92572    1.000
    N2027    N        0.92011    0.10141    0.93877    1.000
    C1347    C        0.90189    0.09725    0.96092    1.000
    H1347    H        0.90110    0.10820    0.97740    1.000
    C1348    C        0.93733    0.14864    0.92510    1.000
    H1348    H        0.92050    0.15620    0.91800    1.000
    C1349    C        0.91405    0.08133    0.91872    1.000
    H1349    H        0.92320    0.07930    0.90130    1.000
    C1350    C        0.85769    0.99719    0.99248    1.000
    H1350    H        0.85080    0.99970    0.01090    1.000
    C1351    C        0.89464    0.93355    0.00334    1.000
    H1351    H        0.91300    0.94020    0.00030    1.000
    C1352    C        0.96810    0.11991    0.94479    1.000
    H1352    H        0.97610    0.10420    0.95370    1.000
    N2028    N        0.86856    0.97271    0.98185    1.000
    Cu339    Cu       0.87669    0.52951    0.41280    1.000
    Cu340    Cu       0.85004    0.55795    0.47543    1.000
    N2029    N        0.85846    0.51647    0.47281    1.000
    N2030    N        0.87086    0.50452    0.44880    1.000
    N2031    N        0.89342    0.56541    0.42807    1.000
    N2032    N        0.88591    0.57553    0.45514    1.000
    N2033    N        0.85839    0.40799    0.51677    1.000
    N2034    N        0.88795    0.40967    0.51573    1.000
    C1353    C        0.84820    0.43064    0.50436    1.000
    H1353    H        0.82900    0.43480    0.50190    1.000
    N2035    N        0.87040    0.44704    0.49569    1.000
    C1354    C        0.87679    0.47806    0.45450    1.000
    H1354    H        0.88520    0.46510    0.44210    1.000
    N2036    N        0.98153    0.64324    0.43822    1.000
    N2037    N        0.94046    0.62232    0.43652    1.000
    N2038    N        0.96175    0.66165    0.42572    1.000
    N2039    N        0.92011    0.60141    0.43877    1.000
    C1355    C        0.90189    0.59725    0.46092    1.000
    H1355    H        0.90110    0.60820    0.47740    1.000
    C1356    C        0.93733    0.64864    0.42510    1.000
    H1356    H        0.92050    0.65620    0.41800    1.000
    C1357    C        0.91405    0.58133    0.41872    1.000
    H1357    H        0.92320    0.57930    0.40130    1.000
    C1358    C        0.85769    0.49719    0.49248    1.000
    H1358    H        0.85080    0.49970    0.51090    1.000
    C1359    C        0.89464    0.43355    0.50334    1.000
    H1359    H        0.91300    0.44020    0.50030    1.000
    C1360    C        0.96810    0.61991    0.44479    1.000
    H1360    H        0.97610    0.60420    0.45370    1.000
    N2040    N        0.86856    0.47271    0.48185    1.000
    Cu341    Cu       0.37669    0.02951    0.41280    1.000
    Cu342    Cu       0.35004    0.05795    0.47543    1.000
    N2041    N        0.35846    0.01647    0.47281    1.000
    N2042    N        0.37086    0.00452    0.44880    1.000
    N2043    N        0.39342    0.06541    0.42807    1.000
    N2044    N        0.38591    0.07553    0.45514    1.000
    N2045    N        0.35839    0.90799    0.51677    1.000
    N2046    N        0.38795    0.90967    0.51573    1.000
    C1361    C        0.34820    0.93064    0.50436    1.000
    H1361    H        0.32900    0.93480    0.50190    1.000
    N2047    N        0.37040    0.94704    0.49569    1.000
    C1362    C        0.37679    0.97806    0.45450    1.000
    H1362    H        0.38520    0.96510    0.44210    1.000
    N2048    N        0.48153    0.14324    0.43822    1.000
    N2049    N        0.44046    0.12232    0.43652    1.000
    N2050    N        0.46175    0.16165    0.42572    1.000
    N2051    N        0.42011    0.10141    0.43877    1.000
    C1363    C        0.40189    0.09725    0.46092    1.000
    H1363    H        0.40110    0.10820    0.47740    1.000
    C1364    C        0.43733    0.14864    0.42510    1.000
    H1364    H        0.42050    0.15620    0.41800    1.000
    C1365    C        0.41405    0.08133    0.41872    1.000
    H1365    H        0.42320    0.07930    0.40130    1.000
    C1366    C        0.35769    0.99719    0.49248    1.000
    H1366    H        0.35080    0.99970    0.51090    1.000
    C1367    C        0.39464    0.93355    0.50334    1.000
    H1367    H        0.41300    0.94020    0.50030    1.000
    C1368    C        0.46810    0.11991    0.44479    1.000
    H1368    H        0.47610    0.10420    0.45370    1.000
    N2052    N        0.36856    0.97271    0.48185    1.000
    Cu343    Cu       0.37669    0.52951    0.91280    1.000
    Cu344    Cu       0.35004    0.55795    0.97543    1.000
    N2053    N        0.35846    0.51647    0.97281    1.000
    N2054    N        0.37086    0.50452    0.94880    1.000
    N2055    N        0.39342    0.56541    0.92807    1.000
    N2056    N        0.38591    0.57553    0.95514    1.000
    N2057    N        0.35839    0.40799    0.01677    1.000
    N2058    N        0.38795    0.40967    0.01573    1.000
    C1369    C        0.34820    0.43064    0.00436    1.000
    H1369    H        0.32900    0.43480    0.00190    1.000
    N2059    N        0.37040    0.44704    0.99569    1.000
    C1370    C        0.37679    0.47806    0.95450    1.000
    H1370    H        0.38520    0.46510    0.94210    1.000
    N2060    N        0.48153    0.64324    0.93822    1.000
    N2061    N        0.44046    0.62232    0.93652    1.000
    N2062    N        0.46175    0.66165    0.92572    1.000
    N2063    N        0.42011    0.60141    0.93877    1.000
    C1371    C        0.40189    0.59725    0.96092    1.000
    H1371    H        0.40110    0.60820    0.97740    1.000
    C1372    C        0.43733    0.64864    0.92510    1.000
    H1372    H        0.42050    0.65620    0.91800    1.000
    C1373    C        0.41405    0.58133    0.91872    1.000
    H1373    H        0.42320    0.57930    0.90130    1.000
    C1374    C        0.35769    0.49719    0.99248    1.000
    H1374    H        0.35080    0.49970    0.01090    1.000
    C1375    C        0.39464    0.43355    0.00334    1.000
    H1375    H        0.41300    0.44020    0.00030    1.000
    C1376    C        0.46810    0.61991    0.94479    1.000
    H1376    H        0.47610    0.60420    0.95370    1.000
    N2064    N        0.36856    0.47271    0.98185    1.000
    Cu345    Cu       0.37331    0.52951    0.83720    1.000
    Cu346    Cu       0.39996    0.55795    0.77457    1.000
    N2065    N        0.39154    0.51647    0.77719    1.000
    N2066    N        0.37914    0.50452    0.80120    1.000
    N2067    N        0.35658    0.56541    0.82193    1.000
    N2068    N        0.36409    0.57553    0.79486    1.000
    N2069    N        0.39161    0.40799    0.73323    1.000
    N2070    N        0.36205    0.40967    0.73427    1.000
    C1377    C        0.40180    0.43064    0.74564    1.000
    H1377    H        0.42100    0.43480    0.74810    1.000
    N2071    N        0.37960    0.44704    0.75431    1.000
    C1378    C        0.37321    0.47806    0.79550    1.000
    H1378    H        0.36480    0.46510    0.80790    1.000
    N2072    N        0.26847    0.64324    0.81178    1.000
    N2073    N        0.30954    0.62232    0.81348    1.000
    N2074    N        0.28825    0.66165    0.82428    1.000
    N2075    N        0.32989    0.60141    0.81123    1.000
    C1379    C        0.34811    0.59725    0.78908    1.000
    H1379    H        0.34890    0.60820    0.77260    1.000
    C1380    C        0.31267    0.64864    0.82490    1.000
    H1380    H        0.32950    0.65620    0.83200    1.000
    C1381    C        0.33595    0.58133    0.83128    1.000
    H1381    H        0.32680    0.57930    0.84870    1.000
    C1382    C        0.39231    0.49719    0.75752    1.000
    H1382    H        0.39920    0.49970    0.73910    1.000
    C1383    C        0.35536    0.43355    0.74666    1.000
    H1383    H        0.33700    0.44020    0.74970    1.000
    C1384    C        0.28190    0.61991    0.80521    1.000
    H1384    H        0.27390    0.60420    0.79630    1.000
    N2076    N        0.38144    0.47271    0.76815    1.000
    Cu347    Cu       0.37331    0.02951    0.33720    1.000
    Cu348    Cu       0.39996    0.05795    0.27457    1.000
    N2077    N        0.39154    0.01647    0.27719    1.000
    N2078    N        0.37914    0.00452    0.30120    1.000
    N2079    N        0.35658    0.06541    0.32193    1.000
    N2080    N        0.36409    0.07553    0.29486    1.000
    N2081    N        0.39161    0.90799    0.23323    1.000
    N2082    N        0.36205    0.90967    0.23427    1.000
    C1385    C        0.40180    0.93064    0.24564    1.000
    H1385    H        0.42100    0.93480    0.24810    1.000
    N2083    N        0.37960    0.94704    0.25431    1.000
    C1386    C        0.37321    0.97806    0.29550    1.000
    H1386    H        0.36480    0.96510    0.30790    1.000
    N2084    N        0.26847    0.14324    0.31178    1.000
    N2085    N        0.30954    0.12232    0.31348    1.000
    N2086    N        0.28825    0.16165    0.32428    1.000
    N2087    N        0.32989    0.10141    0.31123    1.000
    C1387    C        0.34811    0.09725    0.28908    1.000
    H1387    H        0.34890    0.10820    0.27260    1.000
    C1388    C        0.31267    0.14864    0.32490    1.000
    H1388    H        0.32950    0.15620    0.33200    1.000
    C1389    C        0.33595    0.08133    0.33128    1.000
    H1389    H        0.32680    0.07930    0.34870    1.000
    C1390    C        0.39231    0.99719    0.25752    1.000
    H1390    H        0.39920    0.99970    0.23910    1.000
    C1391    C        0.35536    0.93355    0.24666    1.000
    H1391    H        0.33700    0.94020    0.24970    1.000
    C1392    C        0.28190    0.11991    0.30521    1.000
    H1392    H        0.27390    0.10420    0.29630    1.000
    N2088    N        0.38144    0.97271    0.26815    1.000
    Cu349    Cu       0.87331    0.52951    0.33720    1.000
    Cu350    Cu       0.89996    0.55795    0.27457    1.000
    N2089    N        0.89154    0.51647    0.27719    1.000
    N2090    N        0.87914    0.50452    0.30120    1.000
    N2091    N        0.85658    0.56541    0.32193    1.000
    N2092    N        0.86409    0.57553    0.29486    1.000
    N2093    N        0.89161    0.40799    0.23323    1.000
    N2094    N        0.86205    0.40967    0.23427    1.000
    C1393    C        0.90180    0.43064    0.24564    1.000
    H1393    H        0.92100    0.43480    0.24810    1.000
    N2095    N        0.87960    0.44704    0.25431    1.000
    C1394    C        0.87321    0.47806    0.29550    1.000
    H1394    H        0.86480    0.46510    0.30790    1.000
    N2096    N        0.76847    0.64324    0.31178    1.000
    N2097    N        0.80954    0.62232    0.31348    1.000
    N2098    N        0.78825    0.66165    0.32428    1.000
    N2099    N        0.82989    0.60141    0.31123    1.000
    C1395    C        0.84811    0.59725    0.28908    1.000
    H1395    H        0.84890    0.60820    0.27260    1.000
    C1396    C        0.81267    0.64864    0.32490    1.000
    H1396    H        0.82950    0.65620    0.33200    1.000
    C1397    C        0.83595    0.58133    0.33128    1.000
    H1397    H        0.82680    0.57930    0.34870    1.000
    C1398    C        0.89231    0.49719    0.25752    1.000
    H1398    H        0.89920    0.49970    0.23910    1.000
    C1399    C        0.85536    0.43355    0.24666    1.000
    H1399    H        0.83700    0.44020    0.24970    1.000
    C1400    C        0.78190    0.61991    0.30521    1.000
    H1400    H        0.77390    0.60420    0.29630    1.000
    N2100    N        0.88144    0.47271    0.26815    1.000
    Cu351    Cu       0.87331    0.02951    0.83720    1.000
    Cu352    Cu       0.89996    0.05795    0.77457    1.000
    N2101    N        0.89154    0.01647    0.77719    1.000
    N2102    N        0.87914    0.00452    0.80120    1.000
    N2103    N        0.85658    0.06541    0.82193    1.000
    N2104    N        0.86409    0.07553    0.79486    1.000
    N2105    N        0.89161    0.90799    0.73323    1.000
    N2106    N        0.86205    0.90967    0.73427    1.000
    C1401    C        0.90180    0.93064    0.74564    1.000
    H1401    H        0.92100    0.93480    0.74810    1.000
    N2107    N        0.87960    0.94704    0.75431    1.000
    C1402    C        0.87321    0.97806    0.79550    1.000
    H1402    H        0.86480    0.96510    0.80790    1.000
    N2108    N        0.76847    0.14324    0.81178    1.000
    N2109    N        0.80954    0.12232    0.81348    1.000
    N2110    N        0.78825    0.16165    0.82428    1.000
    N2111    N        0.82989    0.10141    0.81123    1.000
    C1403    C        0.84811    0.09725    0.78908    1.000
    H1403    H        0.84890    0.10820    0.77260    1.000
    C1404    C        0.81267    0.14864    0.82490    1.000
    H1404    H        0.82950    0.15620    0.83200    1.000
    C1405    C        0.83595    0.08133    0.83128    1.000
    H1405    H        0.82680    0.07930    0.84870    1.000
    C1406    C        0.89231    0.99719    0.75752    1.000
    H1406    H        0.89920    0.99970    0.73910    1.000
    C1407    C        0.85536    0.93355    0.74666    1.000
    H1407    H        0.83700    0.94020    0.74970    1.000
    C1408    C        0.78190    0.11991    0.80521    1.000
    H1408    H        0.77390    0.10420    0.79630    1.000
    N2112    N        0.88144    0.97271    0.76815    1.000
    Cu353    Cu       0.72050    0.33720    0.37669    1.000
    Cu354    Cu       0.69205    0.27457    0.35004    1.000
    N2113    N        0.73353    0.27719    0.35846    1.000
    N2114    N        0.74548    0.30120    0.37086    1.000
    N2115    N        0.68459    0.32193    0.39342    1.000
    N2116    N        0.67447    0.29486    0.38591    1.000
    N2117    N        0.84201    0.23323    0.35839    1.000
    N2118    N        0.84033    0.23427    0.38795    1.000
    C1409    C        0.81936    0.24564    0.34820    1.000
    H1409    H        0.81520    0.24810    0.32900    1.000
    N2119    N        0.80296    0.25431    0.37040    1.000
    C1410    C        0.77194    0.29550    0.37679    1.000
    H1410    H        0.78490    0.30790    0.38520    1.000
    N2120    N        0.60676    0.31178    0.48153    1.000
    N2121    N        0.62768    0.31348    0.44046    1.000
    N2122    N        0.58835    0.32428    0.46175    1.000
    N2123    N        0.64859    0.31123    0.42011    1.000
    C1411    C        0.65275    0.28908    0.40189    1.000
    H1411    H        0.64180    0.27260    0.40110    1.000
    C1412    C        0.60136    0.32490    0.43733    1.000
    H1412    H        0.59380    0.33200    0.42050    1.000
    C1413    C        0.66867    0.33128    0.41405    1.000
    H1413    H        0.67070    0.34870    0.42320    1.000
    C1414    C        0.75281    0.25752    0.35769    1.000
    H1414    H        0.75030    0.23910    0.35080    1.000
    C1415    C        0.81645    0.24666    0.39464    1.000
    H1415    H        0.80980    0.24970    0.41300    1.000
    C1416    C        0.63009    0.30521    0.46810    1.000
    H1416    H        0.64580    0.29630    0.47610    1.000
    N2124    N        0.77729    0.26815    0.36856    1.000
    Cu355    Cu       0.72050    0.83720    0.87669    1.000
    Cu356    Cu       0.69205    0.77457    0.85004    1.000
    N2125    N        0.73353    0.77719    0.85846    1.000
    N2126    N        0.74548    0.80120    0.87086    1.000
    N2127    N        0.68459    0.82193    0.89342    1.000
    N2128    N        0.67447    0.79486    0.88591    1.000
    N2129    N        0.84201    0.73323    0.85839    1.000
    N2130    N        0.84033    0.73427    0.88795    1.000
    C1417    C        0.81936    0.74564    0.84820    1.000
    H1417    H        0.81520    0.74810    0.82900    1.000
    N2131    N        0.80296    0.75431    0.87040    1.000
    C1418    C        0.77194    0.79550    0.87679    1.000
    H1418    H        0.78490    0.80790    0.88520    1.000
    N2132    N        0.60676    0.81178    0.98153    1.000
    N2133    N        0.62768    0.81348    0.94046    1.000
    N2134    N        0.58835    0.82428    0.96175    1.000
    N2135    N        0.64859    0.81123    0.92011    1.000
    C1419    C        0.65275    0.78908    0.90189    1.000
    H1419    H        0.64180    0.77260    0.90110    1.000
    C1420    C        0.60136    0.82490    0.93733    1.000
    H1420    H        0.59380    0.83200    0.92050    1.000
    C1421    C        0.66867    0.83128    0.91405    1.000
    H1421    H        0.67070    0.84870    0.92320    1.000
    C1422    C        0.75281    0.75752    0.85769    1.000
    H1422    H        0.75030    0.73910    0.85080    1.000
    C1423    C        0.81645    0.74666    0.89464    1.000
    H1423    H        0.80980    0.74970    0.91300    1.000
    C1424    C        0.63009    0.80521    0.96810    1.000
    H1424    H        0.64580    0.79630    0.97610    1.000
    N2136    N        0.77729    0.76815    0.86856    1.000
    Cu357    Cu       0.22050    0.33720    0.87669    1.000
    Cu358    Cu       0.19205    0.27457    0.85004    1.000
    N2137    N        0.23353    0.27719    0.85846    1.000
    N2138    N        0.24548    0.30120    0.87086    1.000
    N2139    N        0.18459    0.32193    0.89342    1.000
    N2140    N        0.17447    0.29486    0.88591    1.000
    N2141    N        0.34201    0.23323    0.85839    1.000
    N2142    N        0.34033    0.23427    0.88795    1.000
    C1425    C        0.31936    0.24564    0.84820    1.000
    H1425    H        0.31520    0.24810    0.82900    1.000
    N2143    N        0.30296    0.25431    0.87040    1.000
    C1426    C        0.27194    0.29550    0.87679    1.000
    H1426    H        0.28490    0.30790    0.88520    1.000
    N2144    N        0.10676    0.31178    0.98153    1.000
    N2145    N        0.12768    0.31348    0.94046    1.000
    N2146    N        0.08835    0.32428    0.96175    1.000
    N2147    N        0.14859    0.31123    0.92011    1.000
    C1427    C        0.15275    0.28908    0.90189    1.000
    H1427    H        0.14180    0.27260    0.90110    1.000
    C1428    C        0.10136    0.32490    0.93733    1.000
    H1428    H        0.09380    0.33200    0.92050    1.000
    C1429    C        0.16867    0.33128    0.91405    1.000
    H1429    H        0.17070    0.34870    0.92320    1.000
    C1430    C        0.25281    0.25752    0.85769    1.000
    H1430    H        0.25030    0.23910    0.85080    1.000
    C1431    C        0.31645    0.24666    0.89464    1.000
    H1431    H        0.30980    0.24970    0.91300    1.000
    C1432    C        0.13009    0.30521    0.96810    1.000
    H1432    H        0.14580    0.29630    0.97610    1.000
    N2148    N        0.27729    0.26815    0.86856    1.000
    Cu359    Cu       0.22050    0.83720    0.37669    1.000
    Cu360    Cu       0.19205    0.77457    0.35004    1.000
    N2149    N        0.23353    0.77719    0.35846    1.000
    N2150    N        0.24548    0.80120    0.37086    1.000
    N2151    N        0.18459    0.82193    0.39342    1.000
    N2152    N        0.17447    0.79486    0.38591    1.000
    N2153    N        0.34201    0.73323    0.35839    1.000
    N2154    N        0.34033    0.73427    0.38795    1.000
    C1433    C        0.31936    0.74564    0.34820    1.000
    H1433    H        0.31520    0.74810    0.32900    1.000
    N2155    N        0.30296    0.75431    0.37040    1.000
    C1434    C        0.27194    0.79550    0.37679    1.000
    H1434    H        0.28490    0.80790    0.38520    1.000
    N2156    N        0.10676    0.81178    0.48153    1.000
    N2157    N        0.12768    0.81348    0.44046    1.000
    N2158    N        0.08835    0.82428    0.46175    1.000
    N2159    N        0.14859    0.81123    0.42011    1.000
    C1435    C        0.15275    0.78908    0.40189    1.000
    H1435    H        0.14180    0.77260    0.40110    1.000
    C1436    C        0.10136    0.82490    0.43733    1.000
    H1436    H        0.09380    0.83200    0.42050    1.000
    C1437    C        0.16867    0.83128    0.41405    1.000
    H1437    H        0.17070    0.84870    0.42320    1.000
    C1438    C        0.25281    0.75752    0.35769    1.000
    H1438    H        0.25030    0.73910    0.35080    1.000
    C1439    C        0.31645    0.74666    0.39464    1.000
    H1439    H        0.30980    0.74970    0.41300    1.000
    C1440    C        0.13009    0.80521    0.46810    1.000
    H1440    H        0.14580    0.79630    0.47610    1.000
    N2160    N        0.27729    0.76815    0.36856    1.000
    Cu361    Cu       0.22050    0.41280    0.87331    1.000
    Cu362    Cu       0.19205    0.47543    0.89996    1.000
    N2161    N        0.23353    0.47281    0.89154    1.000
    N2162    N        0.24548    0.44880    0.87914    1.000
    N2163    N        0.18459    0.42807    0.85658    1.000
    N2164    N        0.17447    0.45514    0.86409    1.000
    N2165    N        0.34201    0.51677    0.89161    1.000
    N2166    N        0.34033    0.51573    0.86205    1.000
    C1441    C        0.31936    0.50436    0.90180    1.000
    H1441    H        0.31520    0.50190    0.92100    1.000
    N2167    N        0.30296    0.49569    0.87960    1.000
    C1442    C        0.27194    0.45450    0.87321    1.000
    H1442    H        0.28490    0.44210    0.86480    1.000
    N2168    N        0.10676    0.43822    0.76847    1.000
    N2169    N        0.12768    0.43652    0.80954    1.000
    N2170    N        0.08835    0.42572    0.78825    1.000
    N2171    N        0.14859    0.43877    0.82989    1.000
    C1443    C        0.15275    0.46092    0.84811    1.000
    H1443    H        0.14180    0.47740    0.84890    1.000
    C1444    C        0.10136    0.42510    0.81267    1.000
    H1444    H        0.09380    0.41800    0.82950    1.000
    C1445    C        0.16867    0.41872    0.83595    1.000
    H1445    H        0.17070    0.40130    0.82680    1.000
    C1446    C        0.25281    0.49248    0.89231    1.000
    H1446    H        0.25030    0.51090    0.89920    1.000
    C1447    C        0.31645    0.50334    0.85536    1.000
    H1447    H        0.30980    0.50030    0.83700    1.000
    C1448    C        0.13009    0.44479    0.78190    1.000
    H1448    H        0.14580    0.45370    0.77390    1.000
    N2172    N        0.27729    0.48185    0.88144    1.000
    Cu363    Cu       0.22050    0.91280    0.37331    1.000
    Cu364    Cu       0.19205    0.97543    0.39996    1.000
    N2173    N        0.23353    0.97281    0.39154    1.000
    N2174    N        0.24548    0.94880    0.37914    1.000
    N2175    N        0.18459    0.92807    0.35658    1.000
    N2176    N        0.17447    0.95514    0.36409    1.000
    N2177    N        0.34201    0.01677    0.39161    1.000
    N2178    N        0.34033    0.01573    0.36205    1.000
    C1449    C        0.31936    0.00436    0.40180    1.000
    H1449    H        0.31520    0.00190    0.42100    1.000
    N2179    N        0.30296    0.99569    0.37960    1.000
    C1450    C        0.27194    0.95450    0.37321    1.000
    H1450    H        0.28490    0.94210    0.36480    1.000
    N2180    N        0.10676    0.93822    0.26847    1.000
    N2181    N        0.12768    0.93652    0.30954    1.000
    N2182    N        0.08835    0.92572    0.28825    1.000
    N2183    N        0.14859    0.93877    0.32989    1.000
    C1451    C        0.15275    0.96092    0.34811    1.000
    H1451    H        0.14180    0.97740    0.34890    1.000
    C1452    C        0.10136    0.92510    0.31267    1.000
    H1452    H        0.09380    0.91800    0.32950    1.000
    C1453    C        0.16867    0.91872    0.33595    1.000
    H1453    H        0.17070    0.90130    0.32680    1.000
    C1454    C        0.25281    0.99248    0.39231    1.000
    H1454    H        0.25030    0.01090    0.39920    1.000
    C1455    C        0.31645    0.00334    0.35536    1.000
    H1455    H        0.30980    0.00030    0.33700    1.000
    C1456    C        0.13009    0.94479    0.28190    1.000
    H1456    H        0.14580    0.95370    0.27390    1.000
    N2184    N        0.27729    0.98185    0.38144    1.000
    Cu365    Cu       0.72050    0.41280    0.37331    1.000
    Cu366    Cu       0.69205    0.47543    0.39996    1.000
    N2185    N        0.73353    0.47281    0.39154    1.000
    N2186    N        0.74548    0.44880    0.37914    1.000
    N2187    N        0.68459    0.42807    0.35658    1.000
    N2188    N        0.67447    0.45514    0.36409    1.000
    N2189    N        0.84201    0.51677    0.39161    1.000
    N2190    N        0.84033    0.51573    0.36205    1.000
    C1457    C        0.81936    0.50436    0.40180    1.000
    H1457    H        0.81520    0.50190    0.42100    1.000
    N2191    N        0.80296    0.49569    0.37960    1.000
    C1458    C        0.77194    0.45450    0.37321    1.000
    H1458    H        0.78490    0.44210    0.36480    1.000
    N2192    N        0.60676    0.43822    0.26847    1.000
    N2193    N        0.62768    0.43652    0.30954    1.000
    N2194    N        0.58835    0.42572    0.28825    1.000
    N2195    N        0.64859    0.43877    0.32989    1.000
    C1459    C        0.65275    0.46092    0.34811    1.000
    H1459    H        0.64180    0.47740    0.34890    1.000
    C1460    C        0.60136    0.42510    0.31267    1.000
    H1460    H        0.59380    0.41800    0.32950    1.000
    C1461    C        0.66867    0.41872    0.33595    1.000
    H1461    H        0.67070    0.40130    0.32680    1.000
    C1462    C        0.75281    0.49248    0.39231    1.000
    H1462    H        0.75030    0.51090    0.39920    1.000
    C1463    C        0.81645    0.50334    0.35536    1.000
    H1463    H        0.80980    0.50030    0.33700    1.000
    C1464    C        0.63009    0.44479    0.28190    1.000
    H1464    H        0.64580    0.45370    0.27390    1.000
    N2196    N        0.77729    0.48185    0.38144    1.000
    Cu367    Cu       0.72050    0.91280    0.87331    1.000
    Cu368    Cu       0.69205    0.97543    0.89996    1.000
    N2197    N        0.73353    0.97281    0.89154    1.000
    N2198    N        0.74548    0.94880    0.87914    1.000
    N2199    N        0.68459    0.92807    0.85658    1.000
    N2200    N        0.67447    0.95514    0.86409    1.000
    N2201    N        0.84201    0.01677    0.89161    1.000
    N2202    N        0.84033    0.01573    0.86205    1.000
    C1465    C        0.81936    0.00436    0.90180    1.000
    H1465    H        0.81520    0.00190    0.92100    1.000
    N2203    N        0.80296    0.99569    0.87960    1.000
    C1466    C        0.77194    0.95450    0.87321    1.000
    H1466    H        0.78490    0.94210    0.86480    1.000
    N2204    N        0.60676    0.93822    0.76847    1.000
    N2205    N        0.62768    0.93652    0.80954    1.000
    N2206    N        0.58835    0.92572    0.78825    1.000
    N2207    N        0.64859    0.93877    0.82989    1.000
    C1467    C        0.65275    0.96092    0.84811    1.000
    H1467    H        0.64180    0.97740    0.84890    1.000
    C1468    C        0.60136    0.92510    0.81267    1.000
    H1468    H        0.59380    0.91800    0.82950    1.000
    C1469    C        0.66867    0.91872    0.83595    1.000
    H1469    H        0.67070    0.90130    0.82680    1.000
    C1470    C        0.75281    0.99248    0.89231    1.000
    H1470    H        0.75030    0.01090    0.89920    1.000
    C1471    C        0.81645    0.00334    0.85536    1.000
    H1471    H        0.80980    0.00030    0.83700    1.000
    C1472    C        0.63009    0.94479    0.78190    1.000
    H1472    H        0.64580    0.95370    0.77390    1.000
    N2208    N        0.77729    0.98185    0.88144    1.000
    Cu369    Cu       0.52951    0.83720    0.37331    1.000
    Cu370    Cu       0.55795    0.77457    0.39996    1.000
    N2209    N        0.51647    0.77719    0.39154    1.000
    N2210    N        0.50452    0.80120    0.37914    1.000
    N2211    N        0.56541    0.82193    0.35658    1.000
    N2212    N        0.57553    0.79486    0.36409    1.000
    N2213    N        0.40799    0.73323    0.39161    1.000
    N2214    N        0.40967    0.73427    0.36205    1.000
    C1473    C        0.43064    0.74564    0.40180    1.000
    H1473    H        0.43480    0.74810    0.42100    1.000
    N2215    N        0.44704    0.75431    0.37960    1.000
    C1474    C        0.47806    0.79550    0.37321    1.000
    H1474    H        0.46510    0.80790    0.36480    1.000
    N2216    N        0.64324    0.81178    0.26847    1.000
    N2217    N        0.62232    0.81348    0.30954    1.000
    N2218    N        0.66165    0.82428    0.28825    1.000
    N2219    N        0.60141    0.81123    0.32989    1.000
    C1475    C        0.59725    0.78908    0.34811    1.000
    H1475    H        0.60820    0.77260    0.34890    1.000
    C1476    C        0.64864    0.82490    0.31267    1.000
    H1476    H        0.65620    0.83200    0.32950    1.000
    C1477    C        0.58133    0.83128    0.33595    1.000
    H1477    H        0.57930    0.84870    0.32680    1.000
    C1478    C        0.49719    0.75752    0.39231    1.000
    H1478    H        0.49970    0.73910    0.39920    1.000
    C1479    C        0.43355    0.74666    0.35536    1.000
    H1479    H        0.44020    0.74970    0.33700    1.000
    C1480    C        0.61991    0.80521    0.28190    1.000
    H1480    H        0.60420    0.79630    0.27390    1.000
    N2220    N        0.47271    0.76815    0.38144    1.000
    Cu371    Cu       0.52951    0.33720    0.87331    1.000
    Cu372    Cu       0.55795    0.27457    0.89996    1.000
    N2221    N        0.51647    0.27719    0.89154    1.000
    N2222    N        0.50452    0.30120    0.87914    1.000
    N2223    N        0.56541    0.32193    0.85658    1.000
    N2224    N        0.57553    0.29486    0.86409    1.000
    N2225    N        0.40799    0.23323    0.89161    1.000
    N2226    N        0.40967    0.23427    0.86205    1.000
    C1481    C        0.43064    0.24564    0.90180    1.000
    H1481    H        0.43480    0.24810    0.92100    1.000
    N2227    N        0.44704    0.25431    0.87960    1.000
    C1482    C        0.47806    0.29550    0.87321    1.000
    H1482    H        0.46510    0.30790    0.86480    1.000
    N2228    N        0.64324    0.31178    0.76847    1.000
    N2229    N        0.62232    0.31348    0.80954    1.000
    N2230    N        0.66165    0.32428    0.78825    1.000
    N2231    N        0.60141    0.31123    0.82989    1.000
    C1483    C        0.59725    0.28908    0.84811    1.000
    H1483    H        0.60820    0.27260    0.84890    1.000
    C1484    C        0.64864    0.32490    0.81267    1.000
    H1484    H        0.65620    0.33200    0.82950    1.000
    C1485    C        0.58133    0.33128    0.83595    1.000
    H1485    H        0.57930    0.34870    0.82680    1.000
    C1486    C        0.49719    0.25752    0.89231    1.000
    H1486    H        0.49970    0.23910    0.89920    1.000
    C1487    C        0.43355    0.24666    0.85536    1.000
    H1487    H        0.44020    0.24970    0.83700    1.000
    C1488    C        0.61991    0.30521    0.78190    1.000
    H1488    H        0.60420    0.29630    0.77390    1.000
    N2232    N        0.47271    0.26815    0.88144    1.000
    Cu373    Cu       0.02951    0.83720    0.87331    1.000
    Cu374    Cu       0.05795    0.77457    0.89996    1.000
    N2233    N        0.01647    0.77719    0.89154    1.000
    N2234    N        0.00452    0.80120    0.87914    1.000
    N2235    N        0.06541    0.82193    0.85658    1.000
    N2236    N        0.07553    0.79486    0.86409    1.000
    N2237    N        0.90799    0.73323    0.89161    1.000
    N2238    N        0.90967    0.73427    0.86205    1.000
    C1489    C        0.93064    0.74564    0.90180    1.000
    H1489    H        0.93480    0.74810    0.92100    1.000
    N2239    N        0.94704    0.75431    0.87960    1.000
    C1490    C        0.97806    0.79550    0.87321    1.000
    H1490    H        0.96510    0.80790    0.86480    1.000
    N2240    N        0.14324    0.81178    0.76847    1.000
    N2241    N        0.12232    0.81348    0.80954    1.000
    N2242    N        0.16165    0.82428    0.78825    1.000
    N2243    N        0.10141    0.81123    0.82989    1.000
    C1491    C        0.09725    0.78908    0.84811    1.000
    H1491    H        0.10820    0.77260    0.84890    1.000
    C1492    C        0.14864    0.82490    0.81267    1.000
    H1492    H        0.15620    0.83200    0.82950    1.000
    C1493    C        0.08133    0.83128    0.83595    1.000
    H1493    H        0.07930    0.84870    0.82680    1.000
    C1494    C        0.99719    0.75752    0.89231    1.000
    H1494    H        0.99970    0.73910    0.89920    1.000
    C1495    C        0.93355    0.74666    0.85536    1.000
    H1495    H        0.94020    0.74970    0.83700    1.000
    C1496    C        0.11991    0.80521    0.78190    1.000
    H1496    H        0.10420    0.79630    0.77390    1.000
    N2244    N        0.97271    0.76815    0.88144    1.000
    Cu375    Cu       0.02951    0.33720    0.37331    1.000
    Cu376    Cu       0.05795    0.27457    0.39996    1.000
    N2245    N        0.01647    0.27719    0.39154    1.000
    N2246    N        0.00452    0.30120    0.37914    1.000
    N2247    N        0.06541    0.32193    0.35658    1.000
    N2248    N        0.07553    0.29486    0.36409    1.000
    N2249    N        0.90799    0.23323    0.39161    1.000
    N2250    N        0.90967    0.23427    0.36205    1.000
    C1497    C        0.93064    0.24564    0.40180    1.000
    H1497    H        0.93480    0.24810    0.42100    1.000
    N2251    N        0.94704    0.25431    0.37960    1.000
    C1498    C        0.97806    0.29550    0.37321    1.000
    H1498    H        0.96510    0.30790    0.36480    1.000
    N2252    N        0.14324    0.31178    0.26847    1.000
    N2253    N        0.12232    0.31348    0.30954    1.000
    N2254    N        0.16165    0.32428    0.28825    1.000
    N2255    N        0.10141    0.31123    0.32989    1.000
    C1499    C        0.09725    0.28908    0.34811    1.000
    H1499    H        0.10820    0.27260    0.34890    1.000
    C1500    C        0.14864    0.32490    0.31267    1.000
    H1500    H        0.15620    0.33200    0.32950    1.000
    C1501    C        0.08133    0.33128    0.33595    1.000
    H1501    H        0.07930    0.34870    0.32680    1.000
    C1502    C        0.99719    0.25752    0.39231    1.000
    H1502    H        0.99970    0.23910    0.39920    1.000
    C1503    C        0.93355    0.24666    0.35536    1.000
    H1503    H        0.94020    0.24970    0.33700    1.000
    C1504    C        0.11991    0.30521    0.28190    1.000
    H1504    H        0.10420    0.29630    0.27390    1.000
    N2256    N        0.97271    0.26815    0.38144    1.000
    Cu377    Cu       0.02951    0.91280    0.87669    1.000
    Cu378    Cu       0.05795    0.97543    0.85004    1.000
    N2257    N        0.01647    0.97281    0.85846    1.000
    N2258    N        0.00452    0.94880    0.87086    1.000
    N2259    N        0.06541    0.92807    0.89342    1.000
    N2260    N        0.07553    0.95514    0.88591    1.000
    N2261    N        0.90799    0.01677    0.85839    1.000
    N2262    N        0.90967    0.01573    0.88795    1.000
    C1505    C        0.93064    0.00436    0.84820    1.000
    H1505    H        0.93480    0.00190    0.82900    1.000
    N2263    N        0.94704    0.99569    0.87040    1.000
    C1506    C        0.97806    0.95450    0.87679    1.000
    H1506    H        0.96510    0.94210    0.88520    1.000
    N2264    N        0.14324    0.93822    0.98153    1.000
    N2265    N        0.12232    0.93652    0.94046    1.000
    N2266    N        0.16165    0.92572    0.96175    1.000
    N2267    N        0.10141    0.93877    0.92011    1.000
    C1507    C        0.09725    0.96092    0.90189    1.000
    H1507    H        0.10820    0.97740    0.90110    1.000
    C1508    C        0.14864    0.92510    0.93733    1.000
    H1508    H        0.15620    0.91800    0.92050    1.000
    C1509    C        0.08133    0.91872    0.91405    1.000
    H1509    H        0.07930    0.90130    0.92320    1.000
    C1510    C        0.99719    0.99248    0.85769    1.000
    H1510    H        0.99970    0.01090    0.85080    1.000
    C1511    C        0.93355    0.00334    0.89464    1.000
    H1511    H        0.94020    0.00030    0.91300    1.000
    C1512    C        0.11991    0.94479    0.96810    1.000
    H1512    H        0.10420    0.95370    0.97610    1.000
    N2268    N        0.97271    0.98185    0.86856    1.000
    Cu379    Cu       0.02951    0.41280    0.37669    1.000
    Cu380    Cu       0.05795    0.47543    0.35004    1.000
    N2269    N        0.01647    0.47281    0.35846    1.000
    N2270    N        0.00452    0.44880    0.37086    1.000
    N2271    N        0.06541    0.42807    0.39342    1.000
    N2272    N        0.07553    0.45514    0.38591    1.000
    N2273    N        0.90799    0.51677    0.35839    1.000
    N2274    N        0.90967    0.51573    0.38795    1.000
    C1513    C        0.93064    0.50436    0.34820    1.000
    H1513    H        0.93480    0.50190    0.32900    1.000
    N2275    N        0.94704    0.49569    0.37040    1.000
    C1514    C        0.97806    0.45450    0.37679    1.000
    H1514    H        0.96510    0.44210    0.38520    1.000
    N2276    N        0.14324    0.43822    0.48153    1.000
    N2277    N        0.12232    0.43652    0.44046    1.000
    N2278    N        0.16165    0.42572    0.46175    1.000
    N2279    N        0.10141    0.43877    0.42011    1.000
    C1515    C        0.09725    0.46092    0.40189    1.000
    H1515    H        0.10820    0.47740    0.40110    1.000
    C1516    C        0.14864    0.42510    0.43733    1.000
    H1516    H        0.15620    0.41800    0.42050    1.000
    C1517    C        0.08133    0.41872    0.41405    1.000
    H1517    H        0.07930    0.40130    0.42320    1.000
    C1518    C        0.99719    0.49248    0.35769    1.000
    H1518    H        0.99970    0.51090    0.35080    1.000
    C1519    C        0.93355    0.50334    0.39464    1.000
    H1519    H        0.94020    0.50030    0.41300    1.000
    C1520    C        0.11991    0.44479    0.46810    1.000
    H1520    H        0.10420    0.45370    0.47610    1.000
    N2280    N        0.97271    0.48185    0.36856    1.000
    Cu381    Cu       0.52951    0.91280    0.37669    1.000
    Cu382    Cu       0.55795    0.97543    0.35004    1.000
    N2281    N        0.51647    0.97281    0.35846    1.000
    N2282    N        0.50452    0.94880    0.37086    1.000
    N2283    N        0.56541    0.92807    0.39342    1.000
    N2284    N        0.57553    0.95514    0.38591    1.000
    N2285    N        0.40799    0.01677    0.35839    1.000
    N2286    N        0.40967    0.01573    0.38795    1.000
    C1521    C        0.43064    0.00436    0.34820    1.000
    H1521    H        0.43480    0.00190    0.32900    1.000
    N2287    N        0.44704    0.99569    0.37040    1.000
    C1522    C        0.47806    0.95450    0.37679    1.000
    H1522    H        0.46510    0.94210    0.38520    1.000
    N2288    N        0.64324    0.93822    0.48153    1.000
    N2289    N        0.62232    0.93652    0.44046    1.000
    N2290    N        0.66165    0.92572    0.46175    1.000
    N2291    N        0.60141    0.93877    0.42011    1.000
    C1523    C        0.59725    0.96092    0.40189    1.000
    H1523    H        0.60820    0.97740    0.40110    1.000
    C1524    C        0.64864    0.92510    0.43733    1.000
    H1524    H        0.65620    0.91800    0.42050    1.000
    C1525    C        0.58133    0.91872    0.41405    1.000
    H1525    H        0.57930    0.90130    0.42320    1.000
    C1526    C        0.49719    0.99248    0.35769    1.000
    H1526    H        0.49970    0.01090    0.35080    1.000
    C1527    C        0.43355    0.00334    0.39464    1.000
    H1527    H        0.44020    0.00030    0.41300    1.000
    C1528    C        0.61991    0.94479    0.46810    1.000
    H1528    H        0.60420    0.95370    0.47610    1.000
    N2292    N        0.47271    0.98185    0.36856    1.000
    Cu383    Cu       0.52951    0.41280    0.87669    1.000
    Cu384    Cu       0.55795    0.47543    0.85004    1.000
    N2293    N        0.51647    0.47281    0.85846    1.000
    N2294    N        0.50452    0.44880    0.87086    1.000
    N2295    N        0.56541    0.42807    0.89342    1.000
    N2296    N        0.57553    0.45514    0.88591    1.000
    N2297    N        0.40799    0.51677    0.85839    1.000
    N2298    N        0.40967    0.51573    0.88795    1.000
    C1529    C        0.43064    0.50436    0.84820    1.000
    H1529    H        0.43480    0.50190    0.82900    1.000
    N2299    N        0.44704    0.49569    0.87040    1.000
    C1530    C        0.47806    0.45450    0.87679    1.000
    H1530    H        0.46510    0.44210    0.88520    1.000
    N2300    N        0.64324    0.43822    0.98153    1.000
    N2301    N        0.62232    0.43652    0.94046    1.000
    N2302    N        0.66165    0.42572    0.96175    1.000
    N2303    N        0.60141    0.43877    0.92011    1.000
    C1531    C        0.59725    0.46092    0.90189    1.000
    H1531    H        0.60820    0.47740    0.90110    1.000
    C1532    C        0.64864    0.42510    0.93733    1.000
    H1532    H        0.65620    0.41800    0.92050    1.000
    C1533    C        0.58133    0.41872    0.91405    1.000
    H1533    H        0.57930    0.40130    0.92320    1.000
    C1534    C        0.49719    0.49248    0.85769    1.000
    H1534    H        0.49970    0.51090    0.85080    1.000
    C1535    C        0.43355    0.50334    0.89464    1.000
    H1535    H        0.44020    0.50030    0.91300    1.000
    C1536    C        0.61991    0.44479    0.96810    1.000
    H1536    H        0.60420    0.45370    0.97610    1.000
    N2304    N        0.47271    0.48185    0.86856    1.000
