# CIF file generated by openbabel 3.1.0, see https://openbabel.org
data_I
_chemical_name_common 'image0'
_cell_length_a 17.9598
_cell_length_b 21.8386
_cell_length_c 12.6661
_cell_angle_alpha 90
_cell_angle_beta 90
_cell_angle_gamma 90
_space_group_name_H-M_alt 'P 1'
_space_group_name_Hall 'P 1'
loop_
    _symmetry_equiv_pos_as_xyz
    x,y,z
loop_
    _atom_site_label
    _atom_site_type_symbol
    _atom_site_fract_x
    _atom_site_fract_y
    _atom_site_fract_z
    _atom_site_occupancy
    Co1      Co       0.33797    0.72853    0.03432    1.000
    Co2      Co       0.17465    0.72006    0.02574    1.000
    N1       N        0.44380    0.76000    0.05300    1.000
    O1       O        0.34550    0.70320    0.87800    1.000
    O2       O        0.31640    0.75070    0.19540    1.000
    O3       O        0.21340    0.30760    0.50200    1.000
    O4       O        0.17470    0.13930    0.57220    1.000
    O5       O        0.22210    0.69340    0.89200    1.000
    O6       O        0.19180    0.74820    0.17380    1.000
    N2       N        0.56180    0.79290    0.04040    1.000
    O7       O        0.33530    0.30860    0.47320    1.000
    O8       O        0.29860    0.13140    0.58370    1.000
    N3       N        0.45970    0.79900    0.13820    1.000
    C1       C        0.50560    0.75950    0.99770    1.000
    C2       C        0.28140    0.69190    0.84000    1.000
    C3       C        0.25120    0.75550    0.22710    1.000
    C4       C        0.53070    0.81690    0.13080    1.000
    N4       N        0.51290    0.73110    0.90340    1.000
    C5       C        0.27560    0.67190    0.72730    1.000
    C6       C        0.23850    0.77380    0.34190    1.000
    N5       N        0.56520    0.85400    0.19760    1.000
    H1       H        0.47570    0.71200    0.87630    1.000
    H2       H        0.55480    0.73230    0.87050    1.000
    C7       C        0.20550    0.66690    0.68210    1.000
    C8       C        0.33860    0.65900    0.66810    1.000
    C9       C        0.29860    0.77930    0.40830    1.000
    C10      C        0.16710    0.78480    0.37900    1.000
    H3       H        0.54160    0.86860    0.25110    1.000
    H4       H        0.61110    0.86340    0.18760    1.000
    H5       H        0.16350    0.67690    0.72120    1.000
    C11      C        0.19810    0.64710    0.57950    1.000
    C12      C        0.33260    0.63960    0.56630    1.000
    H6       H        0.38550    0.66350    0.69830    1.000
    H7       H        0.34630    0.77120    0.38330    1.000
    C13      C        0.28840    0.79700    0.51310    1.000
    C14      C        0.15660    0.80290    0.48390    1.000
    H8       H        0.12630    0.78020    0.33440    1.000
    H9       H        0.15120    0.64260    0.54930    1.000
    C15      C        0.26110    0.63410    0.52260    1.000
    H10      H        0.37470    0.63020    0.52680    1.000
    H11      H        0.32890    0.80010    0.55850    1.000
    C16      C        0.21810    0.80990    0.54810    1.000
    H12      H        0.10890    0.81000    0.50990    1.000
    S1       S        0.25130    0.60461    0.39150    1.000
    S2       S        0.20597    0.83886    0.67811    1.000
    O9       O        0.17780    0.61920    0.35440    1.000
    O10      O        0.31440    0.62380    0.32980    1.000
    C17      C        0.25730    0.52450    0.41200    1.000
    O11      O        0.13060    0.82550    0.71090    1.000
    O12      O        0.26790    0.81900    0.74170    1.000
    C18      C        0.21440    0.91910    0.65830    1.000
    C19      C        0.19330    0.49310    0.43770    1.000
    C20      C        0.32590    0.49600    0.40430    1.000
    C21      C        0.28330    0.94700    0.66790    1.000
    C22      C        0.15220    0.95260    0.62900    1.000
    H13      H        0.14760    0.51300    0.44230    1.000
    C23      C        0.19920    0.43020    0.45640    1.000
    C24      C        0.33070    0.43390    0.42460    1.000
    H14      H        0.36810    0.51820    0.38590    1.000
    H15      H        0.32490    0.92440    0.68770    1.000
    C25      C        0.28930    0.00940    0.64740    1.000
    C26      C        0.15880    0.01360    0.60900    1.000
    H16      H        0.10610    0.93350    0.62310    1.000
    H17      H        0.15680    0.40780    0.47310    1.000
    C27      C        0.26720    0.40100    0.45070    1.000
    H18      H        0.37650    0.41420    0.42080    1.000
    H19      H        0.33520    0.02870    0.65440    1.000
    C28      C        0.22700    0.04320    0.61630    1.000
    H20      H        0.11680    0.03590    0.59000    1.000
    C29      C        0.27190    0.33500    0.47580    1.000
    C30      C        0.23410    0.10950    0.58830    1.000
    Co3      Co       0.66203    0.27147    0.53432    1.000
    Co4      Co       0.82535    0.27994    0.52574    1.000
    N6       N        0.55620    0.24000    0.55300    1.000
    O13      O        0.65450    0.29680    0.37800    1.000
    O14      O        0.68360    0.24930    0.69540    1.000
    O15      O        0.78660    0.69240    0.00200    1.000
    O16      O        0.82530    0.86070    0.07220    1.000
    O17      O        0.77790    0.30660    0.39200    1.000
    O18      O        0.80820    0.25180    0.67380    1.000
    N7       N        0.43820    0.20710    0.54040    1.000
    O19      O        0.66470    0.69140    0.97320    1.000
    O20      O        0.70140    0.86860    0.08370    1.000
    N8       N        0.54030    0.20100    0.63820    1.000
    C31      C        0.49440    0.24050    0.49770    1.000
    C32      C        0.71860    0.30810    0.34000    1.000
    C33      C        0.74880    0.24450    0.72710    1.000
    C34      C        0.46930    0.18310    0.63080    1.000
    N9       N        0.48710    0.26890    0.40340    1.000
    C35      C        0.72440    0.32810    0.22730    1.000
    C36      C        0.76150    0.22620    0.84190    1.000
    N10      N        0.43480    0.14600    0.69760    1.000
    H21      H        0.52430    0.28800    0.37630    1.000
    H22      H        0.44520    0.26770    0.37050    1.000
    C37      C        0.79450    0.33310    0.18210    1.000
    C38      C        0.66140    0.34100    0.16810    1.000
    C39      C        0.70140    0.22070    0.90830    1.000
    C40      C        0.83290    0.21520    0.87900    1.000
    H23      H        0.45840    0.13140    0.75110    1.000
    H24      H        0.38890    0.13660    0.68760    1.000
    H25      H        0.83650    0.32310    0.22120    1.000
    C41      C        0.80190    0.35290    0.07950    1.000
    C42      C        0.66740    0.36040    0.06630    1.000
    H26      H        0.61450    0.33650    0.19830    1.000
    H27      H        0.65370    0.22880    0.88330    1.000
    C43      C        0.71160    0.20300    0.01310    1.000
    C44      C        0.84340    0.19710    0.98390    1.000
    H28      H        0.87370    0.21980    0.83440    1.000
    H29      H        0.84880    0.35740    0.04930    1.000
    C45      C        0.73890    0.36590    0.02260    1.000
    H30      H        0.62530    0.36980    0.02680    1.000
    H31      H        0.67110    0.19990    0.05850    1.000
    C46      C        0.78190    0.19010    0.04810    1.000
    H32      H        0.89110    0.19000    0.00990    1.000
    S3       S        0.74870    0.39539    0.89150    1.000
    S4       S        0.79403    0.16114    0.17811    1.000
    O21      O        0.82220    0.38080    0.85440    1.000
    O22      O        0.68560    0.37620    0.82980    1.000
    C47      C        0.74270    0.47550    0.91200    1.000
    O23      O        0.86940    0.17450    0.21090    1.000
    O24      O        0.73210    0.18100    0.24170    1.000
    C48      C        0.78560    0.08090    0.15830    1.000
    C49      C        0.80670    0.50690    0.93770    1.000
    C50      C        0.67410    0.50400    0.90430    1.000
    C51      C        0.71670    0.05300    0.16790    1.000
    C52      C        0.84780    0.04740    0.12900    1.000
    H33      H        0.85240    0.48700    0.94230    1.000
    C53      C        0.80080    0.56980    0.95640    1.000
    C54      C        0.66930    0.56610    0.92460    1.000
    H34      H        0.63190    0.48180    0.88590    1.000
    H35      H        0.67510    0.07560    0.18770    1.000
    C55      C        0.71070    0.99060    0.14740    1.000
    C56      C        0.84120    0.98640    0.10900    1.000
    H36      H        0.89390    0.06650    0.12310    1.000
    H37      H        0.84320    0.59220    0.97310    1.000
    C57      C        0.73280    0.59900    0.95070    1.000
    H38      H        0.62350    0.58580    0.92080    1.000
    H39      H        0.66480    0.97130    0.15440    1.000
    C58      C        0.77300    0.95680    0.11630    1.000
    H40      H        0.88320    0.96410    0.09000    1.000
    C59      C        0.72810    0.66500    0.97580    1.000
    C60      C        0.76590    0.89050    0.08830    1.000
    Co5      Co       0.83797    0.77147    0.03432    1.000
    Co6      Co       0.67465    0.77994    0.02574    1.000
    N11      N        0.94380    0.74000    0.05300    1.000
    O25      O        0.84550    0.79680    0.87800    1.000
    O26      O        0.81640    0.74930    0.19540    1.000
    O27      O        0.71340    0.19240    0.50200    1.000
    O28      O        0.67470    0.36070    0.57220    1.000
    O29      O        0.72210    0.80660    0.89200    1.000
    O30      O        0.69180    0.75180    0.17380    1.000
    N12      N        0.06180    0.70710    0.04040    1.000
    O31      O        0.83530    0.19140    0.47320    1.000
    O32      O        0.79860    0.36860    0.58370    1.000
    N13      N        0.95970    0.70100    0.13820    1.000
    C61      C        0.00560    0.74050    0.99770    1.000
    C62      C        0.78140    0.80810    0.84000    1.000
    C63      C        0.75120    0.74450    0.22710    1.000
    C64      C        0.03070    0.68310    0.13080    1.000
    N14      N        0.01290    0.76890    0.90340    1.000
    C65      C        0.77560    0.82810    0.72730    1.000
    C66      C        0.73850    0.72620    0.34190    1.000
    N15      N        0.06520    0.64600    0.19760    1.000
    H41      H        0.97570    0.78800    0.87630    1.000
    H42      H        0.05480    0.76770    0.87050    1.000
    C67      C        0.70550    0.83310    0.68210    1.000
    C68      C        0.83860    0.84100    0.66810    1.000
    C69      C        0.79860    0.72070    0.40830    1.000
    C70      C        0.66710    0.71520    0.37900    1.000
    H43      H        0.04160    0.63140    0.25110    1.000
    H44      H        0.11110    0.63660    0.18760    1.000
    H45      H        0.66350    0.82310    0.72120    1.000
    C71      C        0.69810    0.85290    0.57950    1.000
    C72      C        0.83260    0.86040    0.56630    1.000
    H46      H        0.88550    0.83650    0.69830    1.000
    H47      H        0.84630    0.72880    0.38330    1.000
    C73      C        0.78840    0.70300    0.51310    1.000
    C74      C        0.65660    0.69710    0.48390    1.000
    H48      H        0.62630    0.71980    0.33440    1.000
    H49      H        0.65120    0.85740    0.54930    1.000
    C75      C        0.76110    0.86590    0.52260    1.000
    H50      H        0.87470    0.86980    0.52680    1.000
    H51      H        0.82890    0.69990    0.55850    1.000
    C76      C        0.71810    0.69010    0.54810    1.000
    H52      H        0.60890    0.69000    0.50990    1.000
    S5       S        0.75130    0.89539    0.39150    1.000
    S6       S        0.70597    0.66114    0.67811    1.000
    O33      O        0.67780    0.88080    0.35440    1.000
    O34      O        0.81440    0.87620    0.32980    1.000
    C77      C        0.75730    0.97550    0.41200    1.000
    O35      O        0.63060    0.67450    0.71090    1.000
    O36      O        0.76790    0.68100    0.74170    1.000
    C78      C        0.71440    0.58090    0.65830    1.000
    C79      C        0.69330    0.00690    0.43770    1.000
    C80      C        0.82590    0.00400    0.40430    1.000
    C81      C        0.78330    0.55300    0.66790    1.000
    C82      C        0.65220    0.54740    0.62900    1.000
    H53      H        0.64760    0.98700    0.44230    1.000
    C83      C        0.69920    0.06980    0.45640    1.000
    C84      C        0.83070    0.06610    0.42460    1.000
    H54      H        0.86810    0.98180    0.38590    1.000
    H55      H        0.82490    0.57560    0.68770    1.000
    C85      C        0.78930    0.49060    0.64740    1.000
    C86      C        0.65880    0.48640    0.60900    1.000
    H56      H        0.60610    0.56650    0.62310    1.000
    H57      H        0.65680    0.09220    0.47310    1.000
    C87      C        0.76720    0.09900    0.45070    1.000
    H58      H        0.87650    0.08580    0.42080    1.000
    H59      H        0.83520    0.47130    0.65440    1.000
    C88      C        0.72700    0.45680    0.61630    1.000
    H60      H        0.61680    0.46410    0.59000    1.000
    C89      C        0.77190    0.16500    0.47580    1.000
    C90      C        0.73410    0.39050    0.58830    1.000
    Co7      Co       0.16203    0.22853    0.53432    1.000
    Co8      Co       0.32535    0.22006    0.52574    1.000
    N16      N        0.05620    0.26000    0.55300    1.000
    O37      O        0.15450    0.20320    0.37800    1.000
    O38      O        0.18360    0.25070    0.69540    1.000
    O39      O        0.28660    0.80760    0.00200    1.000
    O40      O        0.32530    0.63930    0.07220    1.000
    O41      O        0.27790    0.19340    0.39200    1.000
    O42      O        0.30820    0.24820    0.67380    1.000
    N17      N        0.93820    0.29290    0.54040    1.000
    O43      O        0.16470    0.80860    0.97320    1.000
    O44      O        0.20140    0.63140    0.08370    1.000
    N18      N        0.04030    0.29900    0.63820    1.000
    C91      C        0.99440    0.25950    0.49770    1.000
    C92      C        0.21860    0.19190    0.34000    1.000
    C93      C        0.24880    0.25550    0.72710    1.000
    C94      C        0.96930    0.31690    0.63080    1.000
    N19      N        0.98710    0.23110    0.40340    1.000
    C95      C        0.22440    0.17190    0.22730    1.000
    C96      C        0.26150    0.27380    0.84190    1.000
    N20      N        0.93480    0.35400    0.69760    1.000
    H61      H        0.02430    0.21200    0.37630    1.000
    H62      H        0.94520    0.23230    0.37050    1.000
    C97      C        0.29450    0.16690    0.18210    1.000
    C98      C        0.16140    0.15900    0.16810    1.000
    C99      C        0.20140    0.27930    0.90830    1.000
    C100     C        0.33290    0.28480    0.87900    1.000
    H63      H        0.95840    0.36860    0.75110    1.000
    H64      H        0.88890    0.36340    0.68760    1.000
    H65      H        0.33650    0.17690    0.22120    1.000
    C101     C        0.30190    0.14710    0.07950    1.000
    C102     C        0.16740    0.13960    0.06630    1.000
    H66      H        0.11450    0.16350    0.19830    1.000
    H67      H        0.15370    0.27120    0.88330    1.000
    C103     C        0.21160    0.29700    0.01310    1.000
    C104     C        0.34340    0.30290    0.98390    1.000
    H68      H        0.37370    0.28020    0.83440    1.000
    H69      H        0.34880    0.14260    0.04930    1.000
    C105     C        0.23890    0.13410    0.02260    1.000
    H70      H        0.12530    0.13020    0.02680    1.000
    H71      H        0.17110    0.30010    0.05850    1.000
    C106     C        0.28190    0.30990    0.04810    1.000
    H72      H        0.39110    0.31000    0.00990    1.000
    S7       S        0.24870    0.10461    0.89150    1.000
    S8       S        0.29403    0.33886    0.17811    1.000
    O45      O        0.32220    0.11920    0.85440    1.000
    O46      O        0.18560    0.12380    0.82980    1.000
    C107     C        0.24270    0.02450    0.91200    1.000
    O47      O        0.36940    0.32550    0.21090    1.000
    O48      O        0.23210    0.31900    0.24170    1.000
    C108     C        0.28560    0.41910    0.15830    1.000
    C109     C        0.30670    0.99310    0.93770    1.000
    C110     C        0.17410    0.99600    0.90430    1.000
    C111     C        0.21670    0.44700    0.16790    1.000
    C112     C        0.34780    0.45260    0.12900    1.000
    H73      H        0.35240    0.01300    0.94230    1.000
    C113     C        0.30080    0.93020    0.95640    1.000
    C114     C        0.16930    0.93390    0.92460    1.000
    H74      H        0.13190    0.01820    0.88590    1.000
    H75      H        0.17510    0.42440    0.18770    1.000
    C115     C        0.21070    0.50940    0.14740    1.000
    C116     C        0.34120    0.51360    0.10900    1.000
    H76      H        0.39390    0.43350    0.12310    1.000
    H77      H        0.34320    0.90780    0.97310    1.000
    C117     C        0.23280    0.90100    0.95070    1.000
    H78      H        0.12350    0.91420    0.92080    1.000
    H79      H        0.16480    0.52870    0.15440    1.000
    C118     C        0.27300    0.54320    0.11630    1.000
    H80      H        0.38320    0.53590    0.09000    1.000
    C119     C        0.22810    0.83500    0.97580    1.000
    C120     C        0.26590    0.60950    0.08830    1.000
