# CIF file generated by openbabel 3.1.0, see https://openbabel.org
data_I
_chemical_name_common 'image0'
_cell_length_a 14.2384
_cell_length_b 16.3862
_cell_length_c 6.845
_cell_angle_alpha 90
_cell_angle_beta 90
_cell_angle_gamma 90
_space_group_name_H-M_alt 'P 1'
_space_group_name_Hall 'P 1'
loop_
    _symmetry_equiv_pos_as_xyz
    x,y,z
loop_
    _atom_site_label
    _atom_site_type_symbol
    _atom_site_fract_x
    _atom_site_fract_y
    _atom_site_fract_z
    _atom_site_occupancy
    C1       C        0.42089    0.90723    0.11040    1.000
    C2       C        0.35909    0.83114    0.10580    1.000
    C3       C        0.26770    0.83188    0.17710    1.000
    C4       C        0.21220    0.76207    0.17460    1.000
    C5       C        0.24531    0.68841    0.10200    1.000
    C6       C        0.18469    0.61164    0.10150    1.000
    C7       C        0.33733    0.68761    0.03300    1.000
    C8       C        0.39250    0.75743    0.03240    1.000
    Ca1      Ca       0.43129    0.96948    0.61280    1.000
    F1       F        0.23114    0.90132    0.24960    1.000
    F2       F        0.12394    0.76737    0.24430    1.000
    F3       F        0.37551    0.61711    0.96920    1.000
    F4       F        0.48097    0.75264    0.96260    1.000
    O1       O        0.45002    0.93487    0.95060    1.000
    O2       O        0.44135    0.93656    0.27260    1.000
    O3       O        0.15338    0.58776    0.26260    1.000
    O4       O        0.17047    0.57706    0.94150    1.000
    C9       C        0.57911    0.09277    0.61040    1.000
    C10      C        0.64091    0.16886    0.60580    1.000
    C11      C        0.73230    0.16812    0.67710    1.000
    C12      C        0.78780    0.23793    0.67460    1.000
    C13      C        0.75469    0.31159    0.60200    1.000
    C14      C        0.81531    0.38836    0.60150    1.000
    C15      C        0.66267    0.31239    0.53300    1.000
    C16      C        0.60750    0.24257    0.53240    1.000
    Ca2      Ca       0.56871    0.03052    0.11280    1.000
    F5       F        0.76886    0.09868    0.74960    1.000
    F6       F        0.87606    0.23263    0.74430    1.000
    F7       F        0.62449    0.38289    0.46920    1.000
    F8       F        0.51903    0.24736    0.46260    1.000
    O5       O        0.54998    0.06513    0.45060    1.000
    O6       O        0.55865    0.06344    0.77260    1.000
    O7       O        0.84662    0.41224    0.76260    1.000
    O8       O        0.82953    0.42294    0.44150    1.000
    C17      C        0.92089    0.59277    0.11040    1.000
    C18      C        0.85909    0.66886    0.10580    1.000
    C19      C        0.76770    0.66812    0.17710    1.000
    C20      C        0.71220    0.73793    0.17460    1.000
    C21      C        0.74531    0.81159    0.10200    1.000
    C22      C        0.68469    0.88836    0.10150    1.000
    C23      C        0.83733    0.81239    0.03300    1.000
    C24      C        0.89250    0.74257    0.03240    1.000
    Ca3      Ca       0.93129    0.53052    0.61280    1.000
    F9       F        0.73114    0.59868    0.24960    1.000
    F10      F        0.62394    0.73263    0.24430    1.000
    F11      F        0.87551    0.88289    0.96920    1.000
    F12      F        0.98097    0.74736    0.96260    1.000
    O9       O        0.95002    0.56513    0.95060    1.000
    O10      O        0.94135    0.56344    0.27260    1.000
    O11      O        0.65338    0.91224    0.26260    1.000
    O12      O        0.67047    0.92294    0.94150    1.000
    C25      C        0.07911    0.40723    0.61040    1.000
    C26      C        0.14091    0.33114    0.60580    1.000
    C27      C        0.23230    0.33188    0.67710    1.000
    C28      C        0.28780    0.26207    0.67460    1.000
    C29      C        0.25469    0.18841    0.60200    1.000
    C30      C        0.31531    0.11164    0.60150    1.000
    C31      C        0.16267    0.18761    0.53300    1.000
    C32      C        0.10750    0.25743    0.53240    1.000
    Ca4      Ca       0.06871    0.46948    0.11280    1.000
    F13      F        0.26886    0.40132    0.74960    1.000
    F14      F        0.37606    0.26737    0.74430    1.000
    F15      F        0.12449    0.11711    0.46920    1.000
    F16      F        0.01903    0.25264    0.46260    1.000
    O13      O        0.04998    0.43487    0.45060    1.000
    O14      O        0.05865    0.43656    0.77260    1.000
    O15      O        0.34662    0.08776    0.76260    1.000
    O16      O        0.32953    0.07706    0.44150    1.000
