# CIF file generated by openbabel 3.1.0, see https://openbabel.org
data_I
_chemical_name_common 'image0'
_cell_length_a 18.618
_cell_length_b 8.7601
_cell_length_c 17.484
_cell_angle_alpha 90
_cell_angle_beta 93.43
_cell_angle_gamma 90
_space_group_name_H-M_alt 'P 1'
_space_group_name_Hall 'P 1'
loop_
    _symmetry_equiv_pos_as_xyz
    x,y,z
loop_
    _atom_site_label
    _atom_site_type_symbol
    _atom_site_fract_x
    _atom_site_fract_y
    _atom_site_fract_z
    _atom_site_occupancy
    Zn1      Zn       0.32058    0.97450    0.09684    1.000
    Zn2      Zn       0.01556    0.99122    0.11550    1.000
    Zn3      Zn       0.40725    0.48156    0.26241    1.000
    Zn4      Zn       0.15988    0.48774    0.08921    1.000
    P1       P        0.16524    0.84547    0.08224    1.000
    H1       H        0.16500    0.94000    0.02500    1.000
    P2       P        0.31070    0.33396    0.13306    1.000
    H2       H        0.37200    0.33900    0.10000    1.000
    P3       P        0.95364    0.74020    0.99768    1.000
    H3       H        0.00400    0.65300    0.02300    1.000
    P4       P        0.96333    0.01967    0.29259    1.000
    H4       H        0.98400    0.15900    0.31900    1.000
    P5       P        0.38641    0.01758    0.93814    1.000
    H5       H        0.45100    0.98800    0.96800    1.000
    P6       P        0.45105    0.80003    0.17605    1.000
    H6       H        0.47100    0.78000    0.10300    1.000
    O1       O        0.23910    0.84800    0.12390    1.000
    O2       O        0.28340    0.17230    0.12360    1.000
    O3       O        0.33920    0.93060    0.99230    1.000
    O4       O        0.39490    0.92640    0.17580    1.000
    O5       O        0.10820    0.89610    0.13580    1.000
    O6       O        0.94780    0.87090    0.05360    1.000
    O7       O        0.96860    0.02470    0.20810    1.000
    O8       O        0.97730    0.79620    0.91980    1.000
    O9       O        0.32300    0.37330    0.21710    1.000
    O10      O        0.38000    0.93740    0.86060    1.000
    O11      O        0.51580    0.83550    0.22920    1.000
    O12      O        0.41870    0.64770    0.19250    1.000
    O13      O        0.88580    0.64540    0.99020    1.000
    O14      O        0.14830    0.69260    0.04510    1.000
    O15      O        0.26110    0.44670    0.08890    1.000
    O16      O        0.88970    0.97850    0.31760    1.000
    O17      O        0.02230    0.91230    0.32960    1.000
    H7       H        0.00360    0.85050    0.35750    1.000
    O18      O        0.37380    0.18490    0.93530    1.000
    Zn5      Zn       0.67942    0.47450    0.40316    1.000
    Zn6      Zn       0.98444    0.49122    0.38450    1.000
    Zn7      Zn       0.59275    0.98156    0.23759    1.000
    Zn8      Zn       0.84012    0.98774    0.41079    1.000
    P7       P        0.83476    0.34547    0.41776    1.000
    H8       H        0.83500    0.44000    0.47500    1.000
    P8       P        0.68930    0.83396    0.36694    1.000
    H9       H        0.62800    0.83900    0.40000    1.000
    P9       P        0.04636    0.24020    0.50232    1.000
    H10      H        0.99600    0.15300    0.47700    1.000
    P10      P        0.03667    0.51967    0.20741    1.000
    H11      H        0.01600    0.65900    0.18100    1.000
    P11      P        0.61359    0.51758    0.56186    1.000
    H12      H        0.54900    0.48800    0.53200    1.000
    P12      P        0.54895    0.30003    0.32395    1.000
    H13      H        0.52900    0.28000    0.39700    1.000
    O19      O        0.76090    0.34800    0.37610    1.000
    O20      O        0.71660    0.67230    0.37640    1.000
    O21      O        0.66080    0.43060    0.50770    1.000
    O22      O        0.60510    0.42640    0.32420    1.000
    O23      O        0.89180    0.39610    0.36420    1.000
    O24      O        0.05220    0.37090    0.44640    1.000
    O25      O        0.03140    0.52470    0.29190    1.000
    O26      O        0.02270    0.29620    0.58020    1.000
    O27      O        0.67700    0.87330    0.28290    1.000
    O28      O        0.62000    0.43740    0.63940    1.000
    O29      O        0.48420    0.33550    0.27080    1.000
    O30      O        0.58130    0.14770    0.30750    1.000
    O31      O        0.11420    0.14540    0.50980    1.000
    O32      O        0.85170    0.19260    0.45490    1.000
    O33      O        0.73890    0.94670    0.41110    1.000
    O34      O        0.11030    0.47850    0.18240    1.000
    O35      O        0.97770    0.41230    0.17040    1.000
    H14      H        0.99640    0.35050    0.14250    1.000
    O36      O        0.62620    0.68490    0.56470    1.000
    Zn9      Zn       0.67942    0.02550    0.90316    1.000
    Zn10     Zn       0.98444    0.00878    0.88450    1.000
    Zn11     Zn       0.59275    0.51844    0.73759    1.000
    Zn12     Zn       0.84012    0.51226    0.91079    1.000
    P13      P        0.83476    0.15453    0.91776    1.000
    H15      H        0.83500    0.06000    0.97500    1.000
    P14      P        0.68930    0.66604    0.86694    1.000
    H16      H        0.62800    0.66100    0.90000    1.000
    P15      P        0.04636    0.25980    0.00232    1.000
    H17      H        0.99600    0.34700    0.97700    1.000
    P16      P        0.03667    0.98033    0.70741    1.000
    H18      H        0.01600    0.84100    0.68100    1.000
    P17      P        0.61359    0.98242    0.06186    1.000
    H19      H        0.54900    0.01200    0.03200    1.000
    P18      P        0.54895    0.19997    0.82395    1.000
    H20      H        0.52900    0.22000    0.89700    1.000
    O37      O        0.76090    0.15200    0.87610    1.000
    O38      O        0.71660    0.82770    0.87640    1.000
    O39      O        0.66080    0.06940    0.00770    1.000
    O40      O        0.60510    0.07360    0.82420    1.000
    O41      O        0.89180    0.10390    0.86420    1.000
    O42      O        0.05220    0.12910    0.94640    1.000
    O43      O        0.03140    0.97530    0.79190    1.000
    O44      O        0.02270    0.20380    0.08020    1.000
    O45      O        0.67700    0.62670    0.78290    1.000
    O46      O        0.62000    0.06260    0.13940    1.000
    O47      O        0.48420    0.16450    0.77080    1.000
    O48      O        0.58130    0.35230    0.80750    1.000
    O49      O        0.11420    0.35460    0.00980    1.000
    O50      O        0.85170    0.30740    0.95490    1.000
    O51      O        0.73890    0.55330    0.91110    1.000
    O52      O        0.11030    0.02150    0.68240    1.000
    O53      O        0.97770    0.08770    0.67040    1.000
    H21      H        0.99640    0.14950    0.64250    1.000
    O54      O        0.62620    0.81510    0.06470    1.000
    Zn13     Zn       0.32058    0.52550    0.59684    1.000
    Zn14     Zn       0.01556    0.50878    0.61550    1.000
    Zn15     Zn       0.40725    0.01844    0.76241    1.000
    Zn16     Zn       0.15988    0.01226    0.58921    1.000
    P19      P        0.16524    0.65453    0.58224    1.000
    H22      H        0.16500    0.56000    0.52500    1.000
    P20      P        0.31070    0.16604    0.63306    1.000
    H23      H        0.37200    0.16100    0.60000    1.000
    P21      P        0.95364    0.75980    0.49768    1.000
    H24      H        0.00400    0.84700    0.52300    1.000
    P22      P        0.96333    0.48033    0.79259    1.000
    H25      H        0.98400    0.34100    0.81900    1.000
    P23      P        0.38641    0.48242    0.43814    1.000
    H26      H        0.45100    0.51200    0.46800    1.000
    P24      P        0.45105    0.69997    0.67605    1.000
    H27      H        0.47100    0.72000    0.60300    1.000
    O55      O        0.23910    0.65200    0.62390    1.000
    O56      O        0.28340    0.32770    0.62360    1.000
    O57      O        0.33920    0.56940    0.49230    1.000
    O58      O        0.39490    0.57360    0.67580    1.000
    O59      O        0.10820    0.60390    0.63580    1.000
    O60      O        0.94780    0.62910    0.55360    1.000
    O61      O        0.96860    0.47530    0.70810    1.000
    O62      O        0.97730    0.70380    0.41980    1.000
    O63      O        0.32300    0.12670    0.71710    1.000
    O64      O        0.38000    0.56260    0.36060    1.000
    O65      O        0.51580    0.66450    0.72920    1.000
    O66      O        0.41870    0.85230    0.69250    1.000
    O67      O        0.88580    0.85460    0.49020    1.000
    O68      O        0.14830    0.80740    0.54510    1.000
    O69      O        0.26110    0.05330    0.58890    1.000
    O70      O        0.88970    0.52150    0.81760    1.000
    O71      O        0.02230    0.58770    0.82960    1.000
    H28      H        0.00360    0.64950    0.85750    1.000
    O72      O        0.37380    0.31510    0.43530    1.000
