# CIF file generated by openbabel 3.1.0, see https://openbabel.org
data_I
_chemical_name_common 'image0'
_cell_length_a 9.3265
_cell_length_b 9.6587
_cell_length_c 11.7631
_cell_angle_alpha 75.363
_cell_angle_beta 78.555
_cell_angle_gamma 87.178
_space_group_name_H-M_alt 'P 1'
_space_group_name_Hall 'P 1'
loop_
    _symmetry_equiv_pos_as_xyz
    x,y,z
loop_
    _atom_site_label
    _atom_site_type_symbol
    _atom_site_fract_x
    _atom_site_fract_y
    _atom_site_fract_z
    _atom_site_occupancy
    Zn1      Zn       0.55461    0.11495    0.11163    1.000
    O1       O        0.92570    0.60260    0.37760    1.000
    O2       O        0.64300    0.29670    0.09273    1.000
    N1       N        0.28770    0.02980    0.45020    1.000
    O3       O        0.74280    0.19230    0.24840    1.000
    C1       C        0.68740    0.56870    0.12290    1.000
    H1       H        0.63310    0.56300    0.06600    1.000
    N2       N        0.42780    0.04060    0.27280    1.000
    C2       C        0.79640    0.70890    0.22590    1.000
    H2       H        0.81610    0.79730    0.23740    1.000
    C3       C        0.71370    0.70160    0.14170    1.000
    C4       C        0.82430    0.45370    0.27370    1.000
    H3       H        0.86190    0.37080    0.31740    1.000
    C5       C        0.96780    0.47540    0.45520    1.000
    H4       H        0.03950    0.42260    0.41090    1.000
    H5       H        0.88370    0.41440    0.49440    1.000
    C6       C        0.74210    0.44600    0.18900    1.000
    C7       C        0.85000    0.58520    0.29290    1.000
    C8       C        0.34380    0.89580    0.45150    1.000
    H6       H        0.32650    0.81500    0.51510    1.000
    C9       C        0.70900    0.29900    0.17770    1.000
    C10      C        0.34090    0.11500    0.34070    1.000
    C11      C        0.42870    0.90310    0.34330    1.000
    H7       H        0.48010    0.82680    0.31970    1.000
    C12      C        0.31880    0.27150    0.30720    1.000
    C13      C        0.17390    0.06670    0.54470    1.000
    C14      C        0.37110    0.35630    0.37120    1.000
    H8       H        0.41440    0.31270    0.43600    1.000
    C15      C        0.24270    0.48580    0.17790    1.000
    H9       H        0.19910    0.53070    0.11360    1.000
    C16      C        0.25490    0.33370    0.21200    1.000
    H10      H        0.21980    0.27760    0.16980    1.000
    C17      C        0.35920    0.50310    0.33970    1.000
    H11      H        0.39210    0.55940    0.38280    1.000
    C18      C        0.29670    0.56340    0.24190    1.000
    H12      H        0.29100    0.66270    0.21830    1.000
    C19      C        0.02900    0.98030    0.56200    1.000
    C20      C        0.64570    0.83390    0.07740    1.000
    O4       O        0.67790    0.95060    0.09490    1.000
    O5       O        0.56210    0.81920    0.01280    1.000
    C21      C        0.98070    0.93400    0.49150    1.000
    Zn2      Zn       0.44539    0.88505    0.88837    1.000
    O6       O        0.07430    0.39740    0.62240    1.000
    O7       O        0.35700    0.70330    0.90727    1.000
    N3       N        0.71230    0.97020    0.54980    1.000
    O8       O        0.25720    0.80770    0.75160    1.000
    C22      C        0.31260    0.43130    0.87710    1.000
    H13      H        0.36690    0.43700    0.93400    1.000
    N4       N        0.57220    0.95940    0.72720    1.000
    C23      C        0.20360    0.29110    0.77410    1.000
    H14      H        0.18390    0.20270    0.76260    1.000
    C24      C        0.28630    0.29840    0.85830    1.000
    C25      C        0.17570    0.54630    0.72630    1.000
    H15      H        0.13810    0.62920    0.68260    1.000
    C26      C        0.03220    0.52460    0.54480    1.000
    H16      H        0.96050    0.57740    0.58910    1.000
    H17      H        0.11630    0.58560    0.50560    1.000
    C27      C        0.25790    0.55400    0.81100    1.000
    C28      C        0.15000    0.41480    0.70710    1.000
    C29      C        0.65620    0.10420    0.54850    1.000
    H18      H        0.67350    0.18500    0.48490    1.000
    C30      C        0.29100    0.70100    0.82230    1.000
    C31      C        0.65910    0.88500    0.65930    1.000
    C32      C        0.57130    0.09690    0.65670    1.000
    H19      H        0.51990    0.17320    0.68030    1.000
    C33      C        0.68120    0.72850    0.69280    1.000
    C34      C        0.82610    0.93330    0.45530    1.000
    C35      C        0.62890    0.64370    0.62880    1.000
    H20      H        0.58560    0.68730    0.56400    1.000
    C36      C        0.75730    0.51420    0.82210    1.000
    H21      H        0.80090    0.46930    0.88640    1.000
    C37      C        0.74510    0.66630    0.78800    1.000
    H22      H        0.78020    0.72240    0.83020    1.000
    C38      C        0.64080    0.49690    0.66030    1.000
    H23      H        0.60790    0.44060    0.61720    1.000
    C39      C        0.70330    0.43660    0.75810    1.000
    H24      H        0.70900    0.33730    0.78170    1.000
    C40      C        0.97100    0.01970    0.43800    1.000
    C41      C        0.35430    0.16610    0.92260    1.000
    O9       O        0.32210    0.04940    0.90510    1.000
    O10      O        0.43790    0.18080    0.98720    1.000
    C42      C        0.01930    0.06600    0.50850    1.000
