# CIF file generated by openbabel 3.1.0, see https://openbabel.org
data_I
_chemical_name_common 'image0'
_cell_length_a 8.553
_cell_length_b 9.114
_cell_length_c 10.399
_cell_angle_alpha 105.16
_cell_angle_beta 97.83
_cell_angle_gamma 114.41
_space_group_name_H-M_alt 'P 1'
_space_group_name_Hall 'P 1'
loop_
    _symmetry_equiv_pos_as_xyz
    x,y,z
loop_
    _atom_site_label
    _atom_site_type_symbol
    _atom_site_fract_x
    _atom_site_fract_y
    _atom_site_fract_z
    _atom_site_occupancy
    Cu1      Cu       0.82825    0.95790    0.29730    1.000
    P1       P        0.23604    0.09973    0.42397    1.000
    O1       O        0.08050    0.12640    0.36490    1.000
    O2       O        0.40100    0.27050    0.50450    1.000
    O3       O        0.19320    0.98870    0.51390    1.000
    C1       C        0.28740    0.98810    0.27990    1.000
    C2       C        0.22950    0.98270    0.14660    1.000
    H1       H        0.15830    0.03390    0.13040    1.000
    C3       C        0.27580    0.90280    0.03800    1.000
    C4       C        0.38210    0.82540    0.06180    1.000
    H2       H        0.41140    0.76850    0.98850    1.000
    C5       C        0.44340    0.83350    0.19380    1.000
    C6       C        0.39400    0.91150    0.30200    1.000
    H3       H        0.43250    0.91260    0.39050    1.000
    N1       N        0.56720    0.76850    0.22300    1.000
    H4       H        0.55500    0.68000    0.14500    1.000
    H5       H        0.54000    0.71700    0.28600    1.000
    C7       C        0.22190    0.90360    0.89520    1.000
    O4       O        0.21730    0.79390    0.79370    1.000
    O5       O        0.18620    0.02470    0.88740    1.000
    Cu2      Cu       0.17175    0.04210    0.70270    1.000
    P2       P        0.76396    0.90027    0.57603    1.000
    O6       O        0.91950    0.87360    0.63510    1.000
    O7       O        0.59900    0.72950    0.49550    1.000
    O8       O        0.80680    0.01130    0.48610    1.000
    C8       C        0.71260    0.01190    0.72010    1.000
    C9       C        0.77050    0.01730    0.85340    1.000
    H6       H        0.84170    0.96610    0.86960    1.000
    C10      C        0.72420    0.09720    0.96200    1.000
    C11      C        0.61790    0.17460    0.93820    1.000
    H7       H        0.58860    0.23150    0.01150    1.000
    C12      C        0.55660    0.16650    0.80620    1.000
    C13      C        0.60600    0.08850    0.69800    1.000
    H8       H        0.56750    0.08740    0.60950    1.000
    N2       N        0.43280    0.23150    0.77700    1.000
    H9       H        0.44500    0.32000    0.85500    1.000
    H10      H        0.46000    0.28300    0.71400    1.000
    C14      C        0.77810    0.09640    0.10480    1.000
    O9       O        0.78270    0.20610    0.20630    1.000
    O10      O        0.81380    0.97530    0.11260    1.000
    Cu3      Cu       0.50000    0.50000    0.50000    1.000
