# CIF file generated by openbabel 3.1.0, see https://openbabel.org
data_I
_chemical_name_common 'image0'
_cell_length_a 37.4822
_cell_length_b 37.4822
_cell_length_c 17.2024
_cell_angle_alpha 90
_cell_angle_beta 90
_cell_angle_gamma 120
_space_group_name_H-M_alt 'P 1'
_space_group_name_Hall 'P 1'
loop_
    _symmetry_equiv_pos_as_xyz
    x,y,z
loop_
    _atom_site_label
    _atom_site_type_symbol
    _atom_site_fract_x
    _atom_site_fract_y
    _atom_site_fract_z
    _atom_site_occupancy
    Ni1      Ni       0.50708    0.30913    0.81054    1.000
    Ni2      Ni       0.43149    0.43934    0.51966    1.000
    O1       O        0.52342    0.34607    0.71266    1.000
    O2       O        0.53769    0.31242    0.62270    1.000
    O3       O        0.61591    0.39328    0.72227    1.000
    O4       O        0.61005    0.44807    0.75486    1.000
    O5       O        0.59982    0.52678    0.46543    1.000
    O6       O        0.54657    0.50484    0.54239    1.000
    O7       O        0.51327    0.44710    0.39996    1.000
    O8       O        0.47090    0.41776    0.50098    1.000
    N1       N        0.44548    0.27355    0.77690    1.000
    N2       N        0.19003    0.16971    0.53440    1.000
    N3       N        0.39483    0.40882    0.42550    1.000
    N4       N        0.27118    0.33844    0.93620    1.000
    C1       C        0.55461    0.38144    0.59400    1.000
    H1       H        0.56410    0.37410    0.54530    1.000
    C2       C        0.59163    0.42211    0.62590    1.000
    H2       H        0.61550    0.42870    0.59090    1.000
    C3       C        0.51947    0.39022    0.57080    1.000
    H3       H        0.49390    0.36410    0.55650    1.000
    C4       C        0.53571    0.41984    0.50070    1.000
    H4       H        0.54420    0.40650    0.46000    1.000
    C5       C        0.57549    0.46051    0.52650    1.000
    H5       H        0.59960    0.46240    0.49790    1.000
    C6       C        0.58207    0.45739    0.61550    1.000
    H6       H        0.60540    0.48390    0.63530    1.000
    C7       C        0.51109    0.41153    0.63640    1.000
    H7       H        0.48470    0.40060    0.65990    1.000
    C8       C        0.54311    0.44648    0.65880    1.000
    H8       H        0.54170    0.46330    0.69860    1.000
    C9       C        0.53800    0.34404    0.64840    1.000
    C10      C        0.60600    0.42039    0.70820    1.000
    C11      C        0.50394    0.42897    0.46400    1.000
    C12      C        0.57360    0.49921    0.51060    1.000
    C13      C        0.43618    0.26351    0.70170    1.000
    H9       H        0.45810    0.27290    0.66520    1.000
    C14      C        0.39634    0.24016    0.67510    1.000
    H10      H        0.39130    0.23420    0.62120    1.000
    C15      C        0.36326    0.22515    0.72690    1.000
    C16      C        0.37286    0.23328    0.80580    1.000
    H11      H        0.35160    0.22220    0.84380    1.000
    C17      C        0.41373    0.25774    0.82840    1.000
    H12      H        0.41970    0.26370    0.88210    1.000
    C18      C        0.31994    0.20474    0.70190    1.000
    H13      H        0.29930    0.19450    0.74110    1.000
    C19      C        0.30750    0.19953    0.62790    1.000
    H14      H        0.32800    0.20530    0.58970    1.000
    C20      C        0.26575    0.18586    0.59860    1.000
    C21      C        0.26062    0.18874    0.51890    1.000
    H15      H        0.28310    0.19610    0.48450    1.000
    C22      C        0.22317    0.18102    0.48990    1.000
    H16      H        0.22080    0.18390    0.43560    1.000
    C23      C        0.19402    0.16515    0.61060    1.000
    H17      H        0.17050    0.15630    0.64290    1.000
    C24      C        0.23072    0.17271    0.64470    1.000
    H18      H        0.23200    0.16890    0.69900    1.000
    C25      C        0.35525    0.39819    0.42270    1.000
    H19      H        0.34260    0.40080    0.46850    1.000
    C26      C        0.33172    0.38346    0.35580    1.000
    H20      H        0.30350    0.37610    0.35630    1.000
    C27      C        0.34956    0.37940    0.28780    1.000
    C28      C        0.39117    0.39021    0.29160    1.000
    H21      H        0.40460    0.38750    0.24700    1.000
    C29      C        0.41252    0.40486    0.36090    1.000
    H22      H        0.44080    0.41240    0.36270    1.000
    C30      C        0.32581    0.36499    0.21620    1.000
    H23      H        0.29700    0.34690    0.22050    1.000
    C31      C        0.34177    0.37546    0.14460    1.000
    H24      H        0.37070    0.39290    0.14010    1.000
    C32      C        0.31758    0.36179    0.07290    1.000
    C33      C        0.33033    0.38713    0.00640    1.000
    H25      H        0.35540    0.41270    0.00710    1.000
    C34      C        0.30631    0.37459    0.94040    1.000
    H26      H        0.31500    0.39220    0.89630    1.000
    C35      C        0.25981    0.31323    0.99860    1.000
    H27      H        0.23560    0.28700    0.99500    1.000
    C36      C        0.28176    0.32387    0.06710    1.000
    H28      H        0.27250    0.30540    0.11000    1.000
    Ni3      Ni       0.17375    0.64246    0.14387    1.000
    Ni4      Ni       0.09816    0.77267    0.85299    1.000
    O9       O        0.19009    0.67940    0.04599    1.000
    O10      O        0.20436    0.64575    0.95603    1.000
    O11      O        0.28258    0.72661    0.05560    1.000
    O12      O        0.27672    0.78140    0.08819    1.000
    O13      O        0.26649    0.86011    0.79876    1.000
    O14      O        0.21324    0.83817    0.87572    1.000
    O15      O        0.17994    0.78043    0.73329    1.000
    O16      O        0.13757    0.75109    0.83431    1.000
    N5       N        0.11215    0.60688    0.11023    1.000
    N6       N        0.85670    0.50304    0.86773    1.000
    N7       N        0.06150    0.74215    0.75883    1.000
    N8       N        0.93785    0.67177    0.26953    1.000
    C37      C        0.22128    0.71477    0.92733    1.000
    H29      H        0.23077    0.70743    0.87863    1.000
    C38      C        0.25830    0.75544    0.95923    1.000
    H30      H        0.28217    0.76203    0.92423    1.000
    C39      C        0.18614    0.72355    0.90413    1.000
    H31      H        0.16057    0.69743    0.88983    1.000
    C40      C        0.20238    0.75317    0.83403    1.000
    H32      H        0.21087    0.73983    0.79333    1.000
    C41      C        0.24216    0.79384    0.85983    1.000
    H33      H        0.26627    0.79573    0.83123    1.000
    C42      C        0.24874    0.79072    0.94883    1.000
    H34      H        0.27207    0.81723    0.96863    1.000
    C43      C        0.17776    0.74486    0.96973    1.000
    H35      H        0.15137    0.73393    0.99323    1.000
    C44      C        0.20978    0.77981    0.99213    1.000
    H36      H        0.20837    0.79663    0.03193    1.000
    C45      C        0.20467    0.67737    0.98173    1.000
    C46      C        0.27267    0.75372    0.04153    1.000
    C47      C        0.17061    0.76230    0.79733    1.000
    C48      C        0.24027    0.83254    0.84393    1.000
    C49      C        0.10285    0.59684    0.03503    1.000
    H37      H        0.12477    0.60623    0.99853    1.000
    C50      C        0.06301    0.57349    0.00843    1.000
    H38      H        0.05797    0.56753    0.95453    1.000
    C51      C        0.02993    0.55848    0.06023    1.000
    C52      C        0.03953    0.56661    0.13913    1.000
    H39      H        0.01827    0.55553    0.17713    1.000
    C53      C        0.08040    0.59107    0.16173    1.000
    H40      H        0.08637    0.59703    0.21543    1.000
    C54      C        0.98661    0.53807    0.03523    1.000
    H41      H        0.96597    0.52783    0.07443    1.000
    C55      C        0.97417    0.53286    0.96123    1.000
    H42      H        0.99467    0.53863    0.92303    1.000
    C56      C        0.93242    0.51919    0.93193    1.000
    C57      C        0.92729    0.52207    0.85223    1.000
    H43      H        0.94977    0.52943    0.81783    1.000
    C58      C        0.88984    0.51435    0.82323    1.000
    H44      H        0.88747    0.51723    0.76893    1.000
    C59      C        0.86069    0.49848    0.94393    1.000
    H45      H        0.83717    0.48963    0.97623    1.000
    C60      C        0.89739    0.50604    0.97803    1.000
    H46      H        0.89867    0.50223    0.03233    1.000
    C61      C        0.02192    0.73152    0.75603    1.000
    H47      H        0.00927    0.73413    0.80183    1.000
    C62      C        0.99839    0.71679    0.68913    1.000
    H48      H        0.97017    0.70943    0.68963    1.000
    C63      C        0.01623    0.71273    0.62113    1.000
    C64      C        0.05784    0.72354    0.62493    1.000
    H49      H        0.07127    0.72083    0.58033    1.000
    C65      C        0.07919    0.73819    0.69423    1.000
    H50      H        0.10747    0.74573    0.69603    1.000
    C66      C        0.99248    0.69832    0.54953    1.000
    H51      H        0.96367    0.68023    0.55383    1.000
    C67      C        0.00844    0.70879    0.47793    1.000
    H52      H        0.03737    0.72623    0.47343    1.000
    C68      C        0.98425    0.69512    0.40623    1.000
    C69      C        0.99700    0.72046    0.33973    1.000
    H53      H        0.02207    0.74603    0.34043    1.000
    C70      C        0.97298    0.70792    0.27373    1.000
    H54      H        0.98167    0.72553    0.22963    1.000
    C71      C        0.92648    0.64656    0.33193    1.000
    H55      H        0.90227    0.62033    0.32833    1.000
    C72      C        0.94843    0.65720    0.40043    1.000
    H56      H        0.93917    0.63873    0.44333    1.000
    Ni5      Ni       0.84041    0.97580    0.47721    1.000
    Ni6      Ni       0.76482    0.10601    0.18633    1.000
    O17      O        0.85675    0.01274    0.37933    1.000
    O18      O        0.87102    0.97909    0.28937    1.000
    O19      O        0.94924    0.05995    0.38894    1.000
    O20      O        0.94338    0.11474    0.42153    1.000
    O21      O        0.93315    0.19345    0.13210    1.000
    O22      O        0.87990    0.17151    0.20906    1.000
    O23      O        0.84660    0.11377    0.06663    1.000
    O24      O        0.80423    0.08443    0.16765    1.000
    N9       N        0.77881    0.94022    0.44357    1.000
    N10      N        0.52336    0.83638    0.20107    1.000
    N11      N        0.72816    0.07549    0.09217    1.000
    N12      N        0.60451    0.00511    0.60287    1.000
    C73      C        0.88794    0.04811    0.26067    1.000
    H57      H        0.89743    0.04077    0.21197    1.000
    C74      C        0.92496    0.08878    0.29257    1.000
    H58      H        0.94883    0.09537    0.25757    1.000
    C75      C        0.85280    0.05689    0.23747    1.000
    H59      H        0.82723    0.03077    0.22317    1.000
    C76      C        0.86904    0.08651    0.16737    1.000
    H60      H        0.87753    0.07317    0.12667    1.000
    C77      C        0.90882    0.12718    0.19317    1.000
    H61      H        0.93293    0.12907    0.16457    1.000
    C78      C        0.91540    0.12406    0.28217    1.000
    H62      H        0.93873    0.15057    0.30197    1.000
    C79      C        0.84442    0.07820    0.30307    1.000
    H63      H        0.81803    0.06727    0.32657    1.000
    C80      C        0.87644    0.11315    0.32547    1.000
    H64      H        0.87503    0.12997    0.36527    1.000
    C81      C        0.87133    0.01071    0.31507    1.000
    C82      C        0.93933    0.08706    0.37487    1.000
    C83      C        0.83727    0.09564    0.13067    1.000
    C84      C        0.90693    0.16588    0.17727    1.000
    C85      C        0.76951    0.93018    0.36837    1.000
    H65      H        0.79143    0.93957    0.33187    1.000
    C86      C        0.72967    0.90683    0.34177    1.000
    H66      H        0.72463    0.90087    0.28787    1.000
    C87      C        0.69659    0.89182    0.39357    1.000
    C88      C        0.70619    0.89995    0.47247    1.000
    H67      H        0.68493    0.88887    0.51047    1.000
    C89      C        0.74706    0.92441    0.49507    1.000
    H68      H        0.75303    0.93037    0.54877    1.000
    C90      C        0.65327    0.87141    0.36857    1.000
    H69      H        0.63263    0.86117    0.40777    1.000
    C91      C        0.64083    0.86620    0.29457    1.000
    H70      H        0.66133    0.87197    0.25637    1.000
    C92      C        0.59908    0.85253    0.26527    1.000
    C93      C        0.59395    0.85541    0.18557    1.000
    H71      H        0.61643    0.86277    0.15117    1.000
    C94      C        0.55650    0.84769    0.15657    1.000
    H72      H        0.55413    0.85057    0.10227    1.000
    C95      C        0.52735    0.83182    0.27727    1.000
    H73      H        0.50383    0.82297    0.30957    1.000
    C96      C        0.56405    0.83938    0.31137    1.000
    H74      H        0.56533    0.83557    0.36567    1.000
    C97      C        0.68858    0.06486    0.08937    1.000
    H75      H        0.67593    0.06747    0.13517    1.000
    C98      C        0.66505    0.05013    0.02247    1.000
    H76      H        0.63683    0.04277    0.02297    1.000
    C99      C        0.68289    0.04607    0.95447    1.000
    C100     C        0.72450    0.05688    0.95827    1.000
    H77      H        0.73793    0.05417    0.91367    1.000
    C101     C        0.74585    0.07153    0.02757    1.000
    H78      H        0.77413    0.07907    0.02937    1.000
    C102     C        0.65914    0.03166    0.88287    1.000
    H79      H        0.63033    0.01357    0.88717    1.000
    C103     C        0.67510    0.04213    0.81127    1.000
    H80      H        0.70403    0.05957    0.80677    1.000
    C104     C        0.65091    0.02846    0.73957    1.000
    C105     C        0.66366    0.05380    0.67307    1.000
    H81      H        0.68873    0.07937    0.67377    1.000
    C106     C        0.63964    0.04126    0.60707    1.000
    H82      H        0.64833    0.05887    0.56297    1.000
    C107     C        0.59314    0.97990    0.66527    1.000
    H83      H        0.56893    0.95367    0.66167    1.000
    C108     C        0.61509    0.99054    0.73377    1.000
    H84      H        0.60583    0.97207    0.77667    1.000
    Ni7      Ni       0.69087    0.19795    0.81054    1.000
    Ni8      Ni       0.56066    0.99215    0.51966    1.000
    O25      O        0.65393    0.17735    0.71266    1.000
    O26      O        0.68758    0.22527    0.62270    1.000
    O27      O        0.60672    0.22263    0.72227    1.000
    O28      O        0.55193    0.16198    0.75486    1.000
    O29      O        0.47322    0.07304    0.46543    1.000
    O30      O        0.49516    0.04173    0.54239    1.000
    O31      O        0.55290    0.06617    0.39996    1.000
    O32      O        0.58224    0.05314    0.50098    1.000
    N13      N        0.72645    0.17193    0.77690    1.000
    N14      N        0.83029    0.02032    0.53440    1.000
    N15      N        0.59118    0.98601    0.42550    1.000
    N16      N        0.66156    0.93274    0.93620    1.000
    C109     C        0.61856    0.17317    0.59400    1.000
    H85      H        0.62590    0.19000    0.54530    1.000
    C110     C        0.57789    0.16952    0.62590    1.000
    H86      H        0.57130    0.18680    0.59090    1.000
    C111     C        0.60978    0.12925    0.57080    1.000
    H87      H        0.63590    0.12980    0.55650    1.000
    C112     C        0.58016    0.11587    0.50070    1.000
    H88      H        0.59350    0.13770    0.46000    1.000
    C113     C        0.53949    0.11498    0.52650    1.000
    H89      H        0.53760    0.13720    0.49790    1.000
    C114     C        0.54261    0.12468    0.61550    1.000
    H90      H        0.51610    0.12150    0.63530    1.000
    C115     C        0.58847    0.09956    0.63640    1.000
    H91      H        0.59940    0.08410    0.65990    1.000
    C116     C        0.55352    0.09663    0.65880    1.000
    H92      H        0.53670    0.07840    0.69860    1.000
    C117     C        0.65596    0.19396    0.64840    1.000
    C118     C        0.57961    0.18561    0.70820    1.000
    C119     C        0.57103    0.07497    0.46400    1.000
    C120     C        0.50079    0.07439    0.51060    1.000
    C121     C        0.73649    0.17267    0.70170    1.000
    H93      H        0.72710    0.18520    0.66520    1.000
    C122     C        0.75984    0.15618    0.67510    1.000
    H94      H        0.76580    0.15710    0.62120    1.000
    C123     C        0.77485    0.13811    0.72690    1.000
    C124     C        0.76672    0.13958    0.80580    1.000
    H95      H        0.77780    0.12940    0.84380    1.000
    C125     C        0.74226    0.15599    0.82840    1.000
    H96      H        0.73630    0.15600    0.88210    1.000
    C126     C        0.79526    0.11520    0.70190    1.000
    H97      H        0.80550    0.10480    0.74110    1.000
    C127     C        0.80047    0.10797    0.62790    1.000
    H98      H        0.79470    0.12270    0.58970    1.000
    C128     C        0.81414    0.07989    0.59860    1.000
    C129     C        0.81126    0.07188    0.51890    1.000
    H99      H        0.80390    0.08700    0.48450    1.000
    C130     C        0.81898    0.04215    0.48990    1.000
    H100     H        0.81610    0.03690    0.43560    1.000
    C131     C        0.83485    0.02887    0.61060    1.000
    H101     H        0.84370    0.01420    0.64290    1.000
    C132     C        0.82729    0.05801    0.64470    1.000
    H102     H        0.83110    0.06310    0.69900    1.000
    C133     C        0.60181    0.95706    0.42270    1.000
    H103     H        0.59920    0.94180    0.46850    1.000
    C134     C        0.61654    0.94826    0.35580    1.000
    H104     H        0.62390    0.92740    0.35630    1.000
    C135     C        0.62060    0.97016    0.28780    1.000
    C136     C        0.60979    0.00096    0.29160    1.000
    H105     H        0.61250    0.01710    0.24700    1.000
    C137     C        0.59514    0.00766    0.36090    1.000
    H106     H        0.58760    0.02840    0.36270    1.000
    C138     C        0.63501    0.96082    0.21620    1.000
    H107     H        0.65310    0.95010    0.22050    1.000
    C139     C        0.62454    0.96631    0.14460    1.000
    H108     H        0.60710    0.97780    0.14010    1.000
    C140     C        0.63821    0.95579    0.07290    1.000
    C141     C        0.61287    0.94320    0.00640    1.000
    H109     H        0.58730    0.94270    0.00710    1.000
    C142     C        0.62541    0.93172    0.94040    1.000
    H110     H        0.60780    0.92280    0.89630    1.000
    C143     C        0.68677    0.94658    0.99860    1.000
    H111     H        0.71300    0.94860    0.99500    1.000
    C144     C        0.67613    0.95789    0.06710    1.000
    H112     H        0.69460    0.96710    0.11000    1.000
    Ni9      Ni       0.35754    0.53128    0.14387    1.000
    Ni10     Ni       0.22733    0.32548    0.85299    1.000
    O33      O        0.32060    0.51068    0.04599    1.000
    O34      O        0.35425    0.55860    0.95603    1.000
    O35      O        0.27339    0.55596    0.05560    1.000
    O36      O        0.21860    0.49531    0.08819    1.000
    O37      O        0.13989    0.40637    0.79876    1.000
    O38      O        0.16183    0.37506    0.87572    1.000
    O39      O        0.21957    0.39950    0.73329    1.000
    O40      O        0.24891    0.38647    0.83431    1.000
    N17      N        0.39312    0.50526    0.11023    1.000
    N18      N        0.49696    0.35365    0.86773    1.000
    N19      N        0.25785    0.31934    0.75883    1.000
    N20      N        0.32823    0.26607    0.26953    1.000
    C145     C        0.28523    0.50650    0.92733    1.000
    H113     H        0.29257    0.52333    0.87863    1.000
    C146     C        0.24456    0.50285    0.95923    1.000
    H114     H        0.23797    0.52013    0.92423    1.000
    C147     C        0.27645    0.46258    0.90413    1.000
    H115     H        0.30257    0.46313    0.88983    1.000
    C148     C        0.24683    0.44920    0.83403    1.000
    H116     H        0.26017    0.47103    0.79333    1.000
    C149     C        0.20616    0.44831    0.85983    1.000
    H117     H        0.20427    0.47053    0.83123    1.000
    C150     C        0.20928    0.45801    0.94883    1.000
    H118     H        0.18277    0.45483    0.96863    1.000
    C151     C        0.25514    0.43289    0.96973    1.000
    H119     H        0.26607    0.41743    0.99323    1.000
    C152     C        0.22019    0.42996    0.99213    1.000
    H120     H        0.20337    0.41173    0.03193    1.000
    C153     C        0.32263    0.52729    0.98173    1.000
    C154     C        0.24628    0.51894    0.04153    1.000
    C155     C        0.23770    0.40830    0.79733    1.000
    C156     C        0.16746    0.40772    0.84393    1.000
    C157     C        0.40316    0.50600    0.03503    1.000
    H121     H        0.39377    0.51853    0.99853    1.000
    C158     C        0.42651    0.48951    0.00843    1.000
    H122     H        0.43247    0.49043    0.95453    1.000
    C159     C        0.44152    0.47144    0.06023    1.000
    C160     C        0.43339    0.47291    0.13913    1.000
    H123     H        0.44447    0.46273    0.17713    1.000
    C161     C        0.40893    0.48932    0.16173    1.000
    H124     H        0.40297    0.48933    0.21543    1.000
    C162     C        0.46193    0.44853    0.03523    1.000
    H125     H        0.47217    0.43813    0.07443    1.000
    C163     C        0.46714    0.44130    0.96123    1.000
    H126     H        0.46137    0.45603    0.92303    1.000
    C164     C        0.48081    0.41322    0.93193    1.000
    C165     C        0.47793    0.40521    0.85223    1.000
    H127     H        0.47057    0.42033    0.81783    1.000
    C166     C        0.48565    0.37548    0.82323    1.000
    H128     H        0.48277    0.37023    0.76893    1.000
    C167     C        0.50152    0.36220    0.94393    1.000
    H129     H        0.51037    0.34753    0.97623    1.000
    C168     C        0.49396    0.39134    0.97803    1.000
    H130     H        0.49777    0.39643    0.03233    1.000
    C169     C        0.26848    0.29039    0.75603    1.000
    H131     H        0.26587    0.27513    0.80183    1.000
    C170     C        0.28321    0.28159    0.68913    1.000
    H132     H        0.29057    0.26073    0.68963    1.000
    C171     C        0.28727    0.30349    0.62113    1.000
    C172     C        0.27646    0.33429    0.62493    1.000
    H133     H        0.27917    0.35043    0.58033    1.000
    C173     C        0.26181    0.34099    0.69423    1.000
    H134     H        0.25427    0.36173    0.69603    1.000
    C174     C        0.30168    0.29415    0.54953    1.000
    H135     H        0.31977    0.28343    0.55383    1.000
    C175     C        0.29121    0.29964    0.47793    1.000
    H136     H        0.27377    0.31113    0.47343    1.000
    C176     C        0.30488    0.28912    0.40623    1.000
    C177     C        0.27954    0.27653    0.33973    1.000
    H137     H        0.25397    0.27603    0.34043    1.000
    C178     C        0.29208    0.26505    0.27373    1.000
    H138     H        0.27447    0.25613    0.22963    1.000
    C179     C        0.35344    0.27991    0.33193    1.000
    H139     H        0.37967    0.28193    0.32833    1.000
    C180     C        0.34280    0.29122    0.40043    1.000
    H140     H        0.36127    0.30043    0.44333    1.000
    Ni11     Ni       0.02420    0.86462    0.47721    1.000
    Ni12     Ni       0.89399    0.65882    0.18633    1.000
    O41      O        0.98726    0.84402    0.37933    1.000
    O42      O        0.02091    0.89194    0.28937    1.000
    O43      O        0.94005    0.88930    0.38894    1.000
    O44      O        0.88526    0.82865    0.42153    1.000
    O45      O        0.80655    0.73971    0.13210    1.000
    O46      O        0.82849    0.70840    0.20906    1.000
    O47      O        0.88623    0.73284    0.06663    1.000
    O48      O        0.91557    0.71981    0.16765    1.000
    N21      N        0.05978    0.83860    0.44357    1.000
    N22      N        0.16362    0.68699    0.20107    1.000
    N23      N        0.92451    0.65268    0.09217    1.000
    N24      N        0.99489    0.59941    0.60287    1.000
    C181     C        0.95189    0.83984    0.26067    1.000
    H141     H        0.95923    0.85667    0.21197    1.000
    C182     C        0.91122    0.83619    0.29257    1.000
    H142     H        0.90463    0.85347    0.25757    1.000
    C183     C        0.94311    0.79592    0.23747    1.000
    H143     H        0.96923    0.79647    0.22317    1.000
    C184     C        0.91349    0.78254    0.16737    1.000
    H144     H        0.92683    0.80437    0.12667    1.000
    C185     C        0.87282    0.78165    0.19317    1.000
    H145     H        0.87093    0.80387    0.16457    1.000
    C186     C        0.87594    0.79135    0.28217    1.000
    H146     H        0.84943    0.78817    0.30197    1.000
    C187     C        0.92180    0.76623    0.30307    1.000
    H147     H        0.93273    0.75077    0.32657    1.000
    C188     C        0.88685    0.76330    0.32547    1.000
    H148     H        0.87003    0.74507    0.36527    1.000
    C189     C        0.98929    0.86063    0.31507    1.000
    C190     C        0.91294    0.85228    0.37487    1.000
    C191     C        0.90436    0.74164    0.13067    1.000
    C192     C        0.83412    0.74106    0.17727    1.000
    C193     C        0.06982    0.83934    0.36837    1.000
    H149     H        0.06043    0.85187    0.33187    1.000
    C194     C        0.09317    0.82285    0.34177    1.000
    H150     H        0.09913    0.82377    0.28787    1.000
    C195     C        0.10818    0.80478    0.39357    1.000
    C196     C        0.10005    0.80625    0.47247    1.000
    H151     H        0.11113    0.79607    0.51047    1.000
    C197     C        0.07559    0.82266    0.49507    1.000
    H152     H        0.06963    0.82267    0.54877    1.000
    C198     C        0.12859    0.78187    0.36857    1.000
    H153     H        0.13883    0.77147    0.40777    1.000
    C199     C        0.13380    0.77464    0.29457    1.000
    H154     H        0.12803    0.78937    0.25637    1.000
    C200     C        0.14747    0.74656    0.26527    1.000
    C201     C        0.14459    0.73855    0.18557    1.000
    H155     H        0.13723    0.75367    0.15117    1.000
    C202     C        0.15231    0.70882    0.15657    1.000
    H156     H        0.14943    0.70357    0.10227    1.000
    C203     C        0.16818    0.69554    0.27727    1.000
    H157     H        0.17703    0.68087    0.30957    1.000
    C204     C        0.16062    0.72468    0.31137    1.000
    H158     H        0.16443    0.72977    0.36567    1.000
    C205     C        0.93514    0.62373    0.08937    1.000
    H159     H        0.93253    0.60847    0.13517    1.000
    C206     C        0.94987    0.61493    0.02247    1.000
    H160     H        0.95723    0.59407    0.02297    1.000
    C207     C        0.95393    0.63683    0.95447    1.000
    C208     C        0.94312    0.66763    0.95827    1.000
    H161     H        0.94583    0.68377    0.91367    1.000
    C209     C        0.92847    0.67433    0.02757    1.000
    H162     H        0.92093    0.69507    0.02937    1.000
    C210     C        0.96834    0.62749    0.88287    1.000
    H163     H        0.98643    0.61677    0.88717    1.000
    C211     C        0.95787    0.63298    0.81127    1.000
    H164     H        0.94043    0.64447    0.80677    1.000
    C212     C        0.97154    0.62246    0.73957    1.000
    C213     C        0.94620    0.60987    0.67307    1.000
    H165     H        0.92063    0.60937    0.67377    1.000
    C214     C        0.95874    0.59839    0.60707    1.000
    H166     H        0.94113    0.58947    0.56297    1.000
    C215     C        0.02010    0.61325    0.66527    1.000
    H167     H        0.04633    0.61527    0.66167    1.000
    C216     C        0.00946    0.62456    0.73377    1.000
    H168     H        0.02793    0.63377    0.77667    1.000
    Ni13     Ni       0.80205    0.49292    0.81054    1.000
    Ni14     Ni       0.00785    0.56851    0.51966    1.000
    O49      O        0.82265    0.47658    0.71266    1.000
    O50      O        0.77473    0.46231    0.62270    1.000
    O51      O        0.77737    0.38409    0.72227    1.000
    O52      O        0.83802    0.38995    0.75486    1.000
    O53      O        0.92696    0.40018    0.46543    1.000
    O54      O        0.95827    0.45343    0.54239    1.000
    O55      O        0.93383    0.48673    0.39996    1.000
    O56      O        0.94686    0.52910    0.50098    1.000
    N25      N        0.82807    0.55452    0.77690    1.000
    N26      N        0.97968    0.80997    0.53440    1.000
    N27      N        0.01399    0.60517    0.42550    1.000
    N28      N        0.06726    0.72882    0.93620    1.000
    C217     C        0.82683    0.44539    0.59400    1.000
    H169     H        0.81000    0.43590    0.54530    1.000
    C218     C        0.83048    0.40837    0.62590    1.000
    H170     H        0.81320    0.38450    0.59090    1.000
    C219     C        0.87075    0.48053    0.57080    1.000
    H171     H        0.87020    0.50610    0.55650    1.000
    C220     C        0.88413    0.46429    0.50070    1.000
    H172     H        0.86230    0.45580    0.46000    1.000
    C221     C        0.88502    0.42451    0.52650    1.000
    H173     H        0.86280    0.40040    0.49790    1.000
    C222     C        0.87532    0.41793    0.61550    1.000
    H174     H        0.87850    0.39460    0.63530    1.000
    C223     C        0.90044    0.48891    0.63640    1.000
    H175     H        0.91590    0.51530    0.65990    1.000
    C224     C        0.90337    0.45689    0.65880    1.000
    H176     H        0.92160    0.45830    0.69860    1.000
    C225     C        0.80604    0.46200    0.64840    1.000
    C226     C        0.81439    0.39400    0.70820    1.000
    C227     C        0.92503    0.49606    0.46400    1.000
    C228     C        0.92561    0.42640    0.51060    1.000
    C229     C        0.82733    0.56382    0.70170    1.000
    H177     H        0.81480    0.54190    0.66520    1.000
    C230     C        0.84382    0.60366    0.67510    1.000
    H178     H        0.84290    0.60870    0.62120    1.000
    C231     C        0.86189    0.63674    0.72690    1.000
    C232     C        0.86042    0.62714    0.80580    1.000
    H179     H        0.87060    0.64840    0.84380    1.000
    C233     C        0.84401    0.58627    0.82840    1.000
    H180     H        0.84400    0.58030    0.88210    1.000
    C234     C        0.88480    0.68006    0.70190    1.000
    H181     H        0.89520    0.70070    0.74110    1.000
    C235     C        0.89203    0.69250    0.62790    1.000
    H182     H        0.87730    0.67200    0.58970    1.000
    C236     C        0.92011    0.73425    0.59860    1.000
    C237     C        0.92812    0.73938    0.51890    1.000
    H183     H        0.91300    0.71690    0.48450    1.000
    C238     C        0.95785    0.77683    0.48990    1.000
    H184     H        0.96310    0.77920    0.43560    1.000
    C239     C        0.97113    0.80598    0.61060    1.000
    H185     H        0.98580    0.82950    0.64290    1.000
    C240     C        0.94199    0.76928    0.64470    1.000
    H186     H        0.93690    0.76800    0.69900    1.000
    C241     C        0.04294    0.64475    0.42270    1.000
    H187     H        0.05820    0.65740    0.46850    1.000
    C242     C        0.05174    0.66828    0.35580    1.000
    H188     H        0.07260    0.69650    0.35630    1.000
    C243     C        0.02984    0.65044    0.28780    1.000
    C244     C        0.99904    0.60883    0.29160    1.000
    H189     H        0.98290    0.59540    0.24700    1.000
    C245     C        0.99234    0.58748    0.36090    1.000
    H190     H        0.97160    0.55920    0.36270    1.000
    C246     C        0.03918    0.67419    0.21620    1.000
    H191     H        0.04990    0.70300    0.22050    1.000
    C247     C        0.03369    0.65823    0.14460    1.000
    H192     H        0.02220    0.62930    0.14010    1.000
    C248     C        0.04421    0.68242    0.07290    1.000
    C249     C        0.05680    0.66967    0.00640    1.000
    H193     H        0.05730    0.64460    0.00710    1.000
    C250     C        0.06828    0.69369    0.94040    1.000
    H194     H        0.07720    0.68500    0.89630    1.000
    C251     C        0.05342    0.74019    0.99860    1.000
    H195     H        0.05140    0.76440    0.99500    1.000
    C252     C        0.04211    0.71824    0.06710    1.000
    H196     H        0.03290    0.72750    0.11000    1.000
    Ni15     Ni       0.46872    0.82625    0.14387    1.000
    Ni16     Ni       0.67452    0.90184    0.85299    1.000
    O57      O        0.48932    0.80991    0.04599    1.000
    O58      O        0.44140    0.79564    0.95603    1.000
    O59      O        0.44404    0.71742    0.05560    1.000
    O60      O        0.50469    0.72328    0.08819    1.000
    O61      O        0.59363    0.73351    0.79876    1.000
    O62      O        0.62494    0.78676    0.87572    1.000
    O63      O        0.60050    0.82006    0.73329    1.000
    O64      O        0.61353    0.86243    0.83431    1.000
    N29      N        0.49474    0.88785    0.11023    1.000
    N30      N        0.64635    0.14330    0.86773    1.000
    N31      N        0.68066    0.93850    0.75883    1.000
    N32      N        0.73393    0.06215    0.26953    1.000
    C253     C        0.49350    0.77872    0.92733    1.000
    H197     H        0.47667    0.76923    0.87863    1.000
    C254     C        0.49715    0.74170    0.95923    1.000
    H198     H        0.47987    0.71783    0.92423    1.000
    C255     C        0.53742    0.81386    0.90413    1.000
    H199     H        0.53687    0.83943    0.88983    1.000
    C256     C        0.55080    0.79762    0.83403    1.000
    H200     H        0.52897    0.78913    0.79333    1.000
    C257     C        0.55169    0.75784    0.85983    1.000
    H201     H        0.52947    0.73373    0.83123    1.000
    C258     C        0.54199    0.75126    0.94883    1.000
    H202     H        0.54517    0.72793    0.96863    1.000
    C259     C        0.56711    0.82224    0.96973    1.000
    H203     H        0.58257    0.84863    0.99323    1.000
    C260     C        0.57004    0.79022    0.99213    1.000
    H204     H        0.58827    0.79163    0.03193    1.000
    C261     C        0.47271    0.79533    0.98173    1.000
    C262     C        0.48106    0.72733    0.04153    1.000
    C263     C        0.59170    0.82939    0.79733    1.000
    C264     C        0.59228    0.75973    0.84393    1.000
    C265     C        0.49400    0.89715    0.03503    1.000
    H205     H        0.48147    0.87523    0.99853    1.000
    C266     C        0.51049    0.93699    0.00843    1.000
    H206     H        0.50957    0.94203    0.95453    1.000
    C267     C        0.52856    0.97007    0.06023    1.000
    C268     C        0.52709    0.96047    0.13913    1.000
    H207     H        0.53727    0.98173    0.17713    1.000
    C269     C        0.51068    0.91960    0.16173    1.000
    H208     H        0.51067    0.91363    0.21543    1.000
    C270     C        0.55147    0.01339    0.03523    1.000
    H209     H        0.56187    0.03403    0.07443    1.000
    C271     C        0.55870    0.02583    0.96123    1.000
    H210     H        0.54397    0.00533    0.92303    1.000
    C272     C        0.58678    0.06758    0.93193    1.000
    C273     C        0.59479    0.07271    0.85223    1.000
    H211     H        0.57967    0.05023    0.81783    1.000
    C274     C        0.62452    0.11016    0.82323    1.000
    H212     H        0.62977    0.11253    0.76893    1.000
    C275     C        0.63780    0.13931    0.94393    1.000
    H213     H        0.65247    0.16283    0.97623    1.000
    C276     C        0.60866    0.10261    0.97803    1.000
    H214     H        0.60357    0.10133    0.03233    1.000
    C277     C        0.70961    0.97808    0.75603    1.000
    H215     H        0.72487    0.99073    0.80183    1.000
    C278     C        0.71841    0.00161    0.68913    1.000
    H216     H        0.73927    0.02983    0.68963    1.000
    C279     C        0.69651    0.98377    0.62113    1.000
    C280     C        0.66571    0.94216    0.62493    1.000
    H217     H        0.64957    0.92873    0.58033    1.000
    C281     C        0.65901    0.92081    0.69423    1.000
    H218     H        0.63827    0.89253    0.69603    1.000
    C282     C        0.70585    0.00752    0.54953    1.000
    H219     H        0.71657    0.03633    0.55383    1.000
    C283     C        0.70036    0.99156    0.47793    1.000
    H220     H        0.68887    0.96263    0.47343    1.000
    C284     C        0.71088    0.01575    0.40623    1.000
    C285     C        0.72347    0.00300    0.33973    1.000
    H221     H        0.72397    0.97793    0.34043    1.000
    C286     C        0.73495    0.02702    0.27373    1.000
    H222     H        0.74387    0.01833    0.22963    1.000
    C287     C        0.72009    0.07352    0.33193    1.000
    H223     H        0.71807    0.09773    0.32833    1.000
    C288     C        0.70878    0.05157    0.40043    1.000
    H224     H        0.69957    0.06083    0.44333    1.000
    Ni17     Ni       0.13538    0.15959    0.47721    1.000
    Ni18     Ni       0.34118    0.23518    0.18633    1.000
    O65      O        0.15598    0.14325    0.37933    1.000
    O66      O        0.10806    0.12898    0.28937    1.000
    O67      O        0.11070    0.05076    0.38894    1.000
    O68      O        0.17135    0.05662    0.42153    1.000
    O69      O        0.26029    0.06685    0.13210    1.000
    O70      O        0.29160    0.12010    0.20906    1.000
    O71      O        0.26716    0.15340    0.06663    1.000
    O72      O        0.28019    0.19577    0.16765    1.000
    N33      N        0.16140    0.22119    0.44357    1.000
    N34      N        0.31301    0.47664    0.20107    1.000
    N35      N        0.34732    0.27184    0.09217    1.000
    N36      N        0.40059    0.39549    0.60287    1.000
    C289     C        0.16016    0.11206    0.26067    1.000
    H225     H        0.14333    0.10257    0.21197    1.000
    C290     C        0.16381    0.07504    0.29257    1.000
    H226     H        0.14653    0.05117    0.25757    1.000
    C291     C        0.20408    0.14720    0.23747    1.000
    H227     H        0.20353    0.17277    0.22317    1.000
    C292     C        0.21746    0.13096    0.16737    1.000
    H228     H        0.19563    0.12247    0.12667    1.000
    C293     C        0.21835    0.09118    0.19317    1.000
    H229     H        0.19613    0.06707    0.16457    1.000
    C294     C        0.20865    0.08460    0.28217    1.000
    H230     H        0.21183    0.06127    0.30197    1.000
    C295     C        0.23377    0.15558    0.30307    1.000
    H231     H        0.24923    0.18197    0.32657    1.000
    C296     C        0.23670    0.12356    0.32547    1.000
    H232     H        0.25493    0.12497    0.36527    1.000
    C297     C        0.13937    0.12867    0.31507    1.000
    C298     C        0.14772    0.06067    0.37487    1.000
    C299     C        0.25836    0.16273    0.13067    1.000
    C300     C        0.25894    0.09307    0.17727    1.000
    C301     C        0.16066    0.23049    0.36837    1.000
    H233     H        0.14813    0.20857    0.33187    1.000
    C302     C        0.17715    0.27033    0.34177    1.000
    H234     H        0.17623    0.27537    0.28787    1.000
    C303     C        0.19522    0.30341    0.39357    1.000
    C304     C        0.19375    0.29381    0.47247    1.000
    H235     H        0.20393    0.31507    0.51047    1.000
    C305     C        0.17734    0.25294    0.49507    1.000
    H236     H        0.17733    0.24697    0.54877    1.000
    C306     C        0.21813    0.34673    0.36857    1.000
    H237     H        0.22853    0.36737    0.40777    1.000
    C307     C        0.22536    0.35917    0.29457    1.000
    H238     H        0.21063    0.33867    0.25637    1.000
    C308     C        0.25344    0.40092    0.26527    1.000
    C309     C        0.26145    0.40605    0.18557    1.000
    H239     H        0.24633    0.38357    0.15117    1.000
    C310     C        0.29118    0.44350    0.15657    1.000
    H240     H        0.29643    0.44587    0.10227    1.000
    C311     C        0.30446    0.47265    0.27727    1.000
    H241     H        0.31913    0.49617    0.30957    1.000
    C312     C        0.27532    0.43595    0.31137    1.000
    H242     H        0.27023    0.43467    0.36567    1.000
    C313     C        0.37627    0.31142    0.08937    1.000
    H243     H        0.39153    0.32407    0.13517    1.000
    C314     C        0.38507    0.33495    0.02247    1.000
    H244     H        0.40593    0.36317    0.02297    1.000
    C315     C        0.36317    0.31711    0.95447    1.000
    C316     C        0.33237    0.27550    0.95827    1.000
    H245     H        0.31623    0.26207    0.91367    1.000
    C317     C        0.32567    0.25415    0.02757    1.000
    H246     H        0.30493    0.22587    0.02937    1.000
    C318     C        0.37251    0.34086    0.88287    1.000
    H247     H        0.38323    0.36967    0.88717    1.000
    C319     C        0.36702    0.32490    0.81127    1.000
    H248     H        0.35553    0.29597    0.80677    1.000
    C320     C        0.37754    0.34909    0.73957    1.000
    C321     C        0.39013    0.33634    0.67307    1.000
    H249     H        0.39063    0.31127    0.67377    1.000
    C322     C        0.40161    0.36036    0.60707    1.000
    H250     H        0.41053    0.35167    0.56297    1.000
    C323     C        0.38675    0.40686    0.66527    1.000
    H251     H        0.38473    0.43107    0.66167    1.000
    C324     C        0.37544    0.38491    0.73377    1.000
    H252     H        0.36623    0.39417    0.77667    1.000
    Ni19     Ni       0.49292    0.69087    0.18946    1.000
    Ni20     Ni       0.56851    0.56066    0.48034    1.000
    O73      O        0.47658    0.65393    0.28734    1.000
    O74      O        0.46231    0.68758    0.37730    1.000
    O75      O        0.38409    0.60672    0.27773    1.000
    O76      O        0.38995    0.55193    0.24514    1.000
    O77      O        0.40018    0.47322    0.53457    1.000
    O78      O        0.45343    0.49516    0.45761    1.000
    O79      O        0.48673    0.55290    0.60004    1.000
    O80      O        0.52910    0.58224    0.49902    1.000
    N37      N        0.55452    0.72645    0.22310    1.000
    N38      N        0.80997    0.83029    0.46560    1.000
    N39      N        0.60517    0.59118    0.57450    1.000
    N40      N        0.72882    0.66156    0.06380    1.000
    C325     C        0.44539    0.61856    0.40600    1.000
    H253     H        0.43590    0.62590    0.45470    1.000
    C326     C        0.40837    0.57789    0.37410    1.000
    H254     H        0.38450    0.57130    0.40910    1.000
    C327     C        0.48053    0.60978    0.42920    1.000
    H255     H        0.50610    0.63590    0.44350    1.000
    C328     C        0.46429    0.58016    0.49930    1.000
    H256     H        0.45580    0.59350    0.54000    1.000
    C329     C        0.42451    0.53949    0.47350    1.000
    H257     H        0.40040    0.53760    0.50210    1.000
    C330     C        0.41793    0.54261    0.38450    1.000
    H258     H        0.39460    0.51610    0.36470    1.000
    C331     C        0.48891    0.58847    0.36360    1.000
    H259     H        0.51530    0.59940    0.34010    1.000
    C332     C        0.45689    0.55352    0.34120    1.000
    H260     H        0.45830    0.53670    0.30140    1.000
    C333     C        0.46200    0.65596    0.35160    1.000
    C334     C        0.39400    0.57961    0.29180    1.000
    C335     C        0.49606    0.57103    0.53600    1.000
    C336     C        0.42640    0.50079    0.48940    1.000
    C337     C        0.56382    0.73649    0.29830    1.000
    H261     H        0.54190    0.72710    0.33480    1.000
    C338     C        0.60366    0.75984    0.32490    1.000
    H262     H        0.60870    0.76580    0.37880    1.000
    C339     C        0.63674    0.77485    0.27310    1.000
    C340     C        0.62714    0.76672    0.19420    1.000
    H263     H        0.64840    0.77780    0.15620    1.000
    C341     C        0.58627    0.74226    0.17160    1.000
    H264     H        0.58030    0.73630    0.11790    1.000
    C342     C        0.68006    0.79526    0.29810    1.000
    H265     H        0.70070    0.80550    0.25890    1.000
    C343     C        0.69250    0.80047    0.37210    1.000
    H266     H        0.67200    0.79470    0.41030    1.000
    C344     C        0.73425    0.81414    0.40140    1.000
    C345     C        0.73938    0.81126    0.48110    1.000
    H267     H        0.71690    0.80390    0.51550    1.000
    C346     C        0.77683    0.81898    0.51010    1.000
    H268     H        0.77920    0.81610    0.56440    1.000
    C347     C        0.80598    0.83485    0.38940    1.000
    H269     H        0.82950    0.84370    0.35710    1.000
    C348     C        0.76928    0.82729    0.35530    1.000
    H270     H        0.76800    0.83110    0.30100    1.000
    C349     C        0.64475    0.60181    0.57730    1.000
    H271     H        0.65740    0.59920    0.53150    1.000
    C350     C        0.66828    0.61654    0.64420    1.000
    H272     H        0.69650    0.62390    0.64370    1.000
    C351     C        0.65044    0.62060    0.71220    1.000
    C352     C        0.60883    0.60979    0.70840    1.000
    H273     H        0.59540    0.61250    0.75300    1.000
    C353     C        0.58748    0.59514    0.63910    1.000
    H274     H        0.55920    0.58760    0.63730    1.000
    C354     C        0.67419    0.63501    0.78380    1.000
    H275     H        0.70300    0.65310    0.77950    1.000
    C355     C        0.65823    0.62454    0.85540    1.000
    H276     H        0.62930    0.60710    0.85990    1.000
    C356     C        0.68242    0.63821    0.92710    1.000
    C357     C        0.66967    0.61287    0.99360    1.000
    H277     H        0.64460    0.58730    0.99290    1.000
    C358     C        0.69369    0.62541    0.05960    1.000
    H278     H        0.68500    0.60780    0.10370    1.000
    C359     C        0.74019    0.68677    0.00140    1.000
    H279     H        0.76440    0.71300    0.00500    1.000
    C360     C        0.71824    0.67613    0.93290    1.000
    H280     H        0.72750    0.69460    0.89000    1.000
    Ni21     Ni       0.15959    0.02420    0.52279    1.000
    Ni22     Ni       0.23518    0.89399    0.81367    1.000
    O81      O        0.14325    0.98726    0.62067    1.000
    O82      O        0.12898    0.02091    0.71063    1.000
    O83      O        0.05076    0.94005    0.61106    1.000
    O84      O        0.05662    0.88526    0.57847    1.000
    O85      O        0.06685    0.80655    0.86790    1.000
    O86      O        0.12010    0.82849    0.79094    1.000
    O87      O        0.15340    0.88623    0.93337    1.000
    O88      O        0.19577    0.91557    0.83235    1.000
    N41      N        0.22119    0.05978    0.55643    1.000
    N42      N        0.47664    0.16362    0.79893    1.000
    N43      N        0.27184    0.92451    0.90783    1.000
    N44      N        0.39549    0.99489    0.39713    1.000
    C361     C        0.11206    0.95189    0.73933    1.000
    H281     H        0.10257    0.95923    0.78803    1.000
    C362     C        0.07504    0.91122    0.70743    1.000
    H282     H        0.05117    0.90463    0.74243    1.000
    C363     C        0.14720    0.94311    0.76253    1.000
    H283     H        0.17277    0.96923    0.77683    1.000
    C364     C        0.13096    0.91349    0.83263    1.000
    H284     H        0.12247    0.92683    0.87333    1.000
    C365     C        0.09118    0.87282    0.80683    1.000
    H285     H        0.06707    0.87093    0.83543    1.000
    C366     C        0.08460    0.87594    0.71783    1.000
    H286     H        0.06127    0.84943    0.69803    1.000
    C367     C        0.15558    0.92180    0.69693    1.000
    H287     H        0.18197    0.93273    0.67343    1.000
    C368     C        0.12356    0.88685    0.67453    1.000
    H288     H        0.12497    0.87003    0.63473    1.000
    C369     C        0.12867    0.98929    0.68493    1.000
    C370     C        0.06067    0.91294    0.62513    1.000
    C371     C        0.16273    0.90436    0.86933    1.000
    C372     C        0.09307    0.83412    0.82273    1.000
    C373     C        0.23049    0.06982    0.63163    1.000
    H289     H        0.20857    0.06043    0.66813    1.000
    C374     C        0.27033    0.09317    0.65823    1.000
    H290     H        0.27537    0.09913    0.71213    1.000
    C375     C        0.30341    0.10818    0.60643    1.000
    C376     C        0.29381    0.10005    0.52753    1.000
    H291     H        0.31507    0.11113    0.48953    1.000
    C377     C        0.25294    0.07559    0.50493    1.000
    H292     H        0.24697    0.06963    0.45123    1.000
    C378     C        0.34673    0.12859    0.63143    1.000
    H293     H        0.36737    0.13883    0.59223    1.000
    C379     C        0.35917    0.13380    0.70543    1.000
    H294     H        0.33867    0.12803    0.74363    1.000
    C380     C        0.40092    0.14747    0.73473    1.000
    C381     C        0.40605    0.14459    0.81443    1.000
    H295     H        0.38357    0.13723    0.84883    1.000
    C382     C        0.44350    0.15231    0.84343    1.000
    H296     H        0.44587    0.14943    0.89773    1.000
    C383     C        0.47265    0.16818    0.72273    1.000
    H297     H        0.49617    0.17703    0.69043    1.000
    C384     C        0.43595    0.16062    0.68863    1.000
    H298     H        0.43467    0.16443    0.63433    1.000
    C385     C        0.31142    0.93514    0.91063    1.000
    H299     H        0.32407    0.93253    0.86483    1.000
    C386     C        0.33495    0.94987    0.97753    1.000
    H300     H        0.36317    0.95723    0.97703    1.000
    C387     C        0.31711    0.95393    0.04553    1.000
    C388     C        0.27550    0.94312    0.04173    1.000
    H301     H        0.26207    0.94583    0.08633    1.000
    C389     C        0.25415    0.92847    0.97243    1.000
    H302     H        0.22587    0.92093    0.97063    1.000
    C390     C        0.34086    0.96834    0.11713    1.000
    H303     H        0.36967    0.98643    0.11283    1.000
    C391     C        0.32490    0.95787    0.18873    1.000
    H304     H        0.29597    0.94043    0.19323    1.000
    C392     C        0.34909    0.97154    0.26043    1.000
    C393     C        0.33634    0.94620    0.32693    1.000
    H305     H        0.31127    0.92063    0.32623    1.000
    C394     C        0.36036    0.95874    0.39293    1.000
    H306     H        0.35167    0.94113    0.43703    1.000
    C395     C        0.40686    0.02010    0.33473    1.000
    H307     H        0.43107    0.04633    0.33833    1.000
    C396     C        0.38491    0.00946    0.26623    1.000
    H308     H        0.39417    0.02793    0.22333    1.000
    Ni23     Ni       0.82625    0.35754    0.85613    1.000
    Ni24     Ni       0.90184    0.22733    0.14701    1.000
    O89      O        0.80991    0.32060    0.95401    1.000
    O90      O        0.79564    0.35425    0.04397    1.000
    O91      O        0.71742    0.27339    0.94440    1.000
    O92      O        0.72328    0.21860    0.91181    1.000
    O93      O        0.73351    0.13989    0.20124    1.000
    O94      O        0.78676    0.16183    0.12428    1.000
    O95      O        0.82006    0.21957    0.26671    1.000
    O96      O        0.86243    0.24891    0.16569    1.000
    N45      N        0.88785    0.39312    0.88977    1.000
    N46      N        0.14330    0.49696    0.13227    1.000
    N47      N        0.93850    0.25785    0.24117    1.000
    N48      N        0.06215    0.32823    0.73047    1.000
    C397     C        0.77872    0.28523    0.07267    1.000
    H309     H        0.76923    0.29257    0.12137    1.000
    C398     C        0.74170    0.24456    0.04077    1.000
    H310     H        0.71783    0.23797    0.07577    1.000
    C399     C        0.81386    0.27645    0.09587    1.000
    H311     H        0.83943    0.30257    0.11017    1.000
    C400     C        0.79762    0.24683    0.16597    1.000
    H312     H        0.78913    0.26017    0.20667    1.000
    C401     C        0.75784    0.20616    0.14017    1.000
    H313     H        0.73373    0.20427    0.16877    1.000
    C402     C        0.75126    0.20928    0.05117    1.000
    H314     H        0.72793    0.18277    0.03137    1.000
    C403     C        0.82224    0.25514    0.03027    1.000
    H315     H        0.84863    0.26607    0.00677    1.000
    C404     C        0.79022    0.22019    0.00787    1.000
    H316     H        0.79163    0.20337    0.96807    1.000
    C405     C        0.79533    0.32263    0.01827    1.000
    C406     C        0.72733    0.24628    0.95847    1.000
    C407     C        0.82939    0.23770    0.20267    1.000
    C408     C        0.75973    0.16746    0.15607    1.000
    C409     C        0.89715    0.40316    0.96497    1.000
    H317     H        0.87523    0.39377    0.00147    1.000
    C410     C        0.93699    0.42651    0.99157    1.000
    H318     H        0.94203    0.43247    0.04547    1.000
    C411     C        0.97007    0.44152    0.93977    1.000
    C412     C        0.96047    0.43339    0.86087    1.000
    H319     H        0.98173    0.44447    0.82287    1.000
    C413     C        0.91960    0.40893    0.83827    1.000
    H320     H        0.91363    0.40297    0.78457    1.000
    C414     C        0.01339    0.46193    0.96477    1.000
    H321     H        0.03403    0.47217    0.92557    1.000
    C415     C        0.02583    0.46714    0.03877    1.000
    H322     H        0.00533    0.46137    0.07697    1.000
    C416     C        0.06758    0.48081    0.06807    1.000
    C417     C        0.07271    0.47793    0.14777    1.000
    H323     H        0.05023    0.47057    0.18217    1.000
    C418     C        0.11016    0.48565    0.17677    1.000
    H324     H        0.11253    0.48277    0.23107    1.000
    C419     C        0.13931    0.50152    0.05607    1.000
    H325     H        0.16283    0.51037    0.02377    1.000
    C420     C        0.10261    0.49396    0.02197    1.000
    H326     H        0.10133    0.49777    0.96767    1.000
    C421     C        0.97808    0.26848    0.24397    1.000
    H327     H        0.99073    0.26587    0.19817    1.000
    C422     C        0.00161    0.28321    0.31087    1.000
    H328     H        0.02983    0.29057    0.31037    1.000
    C423     C        0.98377    0.28727    0.37887    1.000
    C424     C        0.94216    0.27646    0.37507    1.000
    H329     H        0.92873    0.27917    0.41967    1.000
    C425     C        0.92081    0.26181    0.30577    1.000
    H330     H        0.89253    0.25427    0.30397    1.000
    C426     C        0.00752    0.30168    0.45047    1.000
    H331     H        0.03633    0.31977    0.44617    1.000
    C427     C        0.99156    0.29121    0.52207    1.000
    H332     H        0.96263    0.27377    0.52657    1.000
    C428     C        0.01575    0.30488    0.59377    1.000
    C429     C        0.00300    0.27954    0.66027    1.000
    H333     H        0.97793    0.25397    0.65957    1.000
    C430     C        0.02702    0.29208    0.72627    1.000
    H334     H        0.01833    0.27447    0.77037    1.000
    C431     C        0.07352    0.35344    0.66807    1.000
    H335     H        0.09773    0.37967    0.67167    1.000
    C432     C        0.05157    0.34280    0.59957    1.000
    H336     H        0.06083    0.36127    0.55667    1.000
    Ni25     Ni       0.30913    0.80205    0.18946    1.000
    Ni26     Ni       0.43934    0.00785    0.48034    1.000
    O97      O        0.34607    0.82265    0.28734    1.000
    O98      O        0.31242    0.77473    0.37730    1.000
    O99      O        0.39328    0.77737    0.27773    1.000
    O100     O        0.44807    0.83802    0.24514    1.000
    O101     O        0.52678    0.92696    0.53457    1.000
    O102     O        0.50484    0.95827    0.45761    1.000
    O103     O        0.44710    0.93383    0.60004    1.000
    O104     O        0.41776    0.94686    0.49902    1.000
    N49      N        0.27355    0.82807    0.22310    1.000
    N50      N        0.16971    0.97968    0.46560    1.000
    N51      N        0.40882    0.01399    0.57450    1.000
    N52      N        0.33844    0.06726    0.06380    1.000
    C433     C        0.38144    0.82683    0.40600    1.000
    H337     H        0.37410    0.81000    0.45470    1.000
    C434     C        0.42211    0.83048    0.37410    1.000
    H338     H        0.42870    0.81320    0.40910    1.000
    C435     C        0.39022    0.87075    0.42920    1.000
    H339     H        0.36410    0.87020    0.44350    1.000
    C436     C        0.41984    0.88413    0.49930    1.000
    H340     H        0.40650    0.86230    0.54000    1.000
    C437     C        0.46051    0.88502    0.47350    1.000
    H341     H        0.46240    0.86280    0.50210    1.000
    C438     C        0.45739    0.87532    0.38450    1.000
    H342     H        0.48390    0.87850    0.36470    1.000
    C439     C        0.41153    0.90044    0.36360    1.000
    H343     H        0.40060    0.91590    0.34010    1.000
    C440     C        0.44648    0.90337    0.34120    1.000
    H344     H        0.46330    0.92160    0.30140    1.000
    C441     C        0.34404    0.80604    0.35160    1.000
    C442     C        0.42039    0.81439    0.29180    1.000
    C443     C        0.42897    0.92503    0.53600    1.000
    C444     C        0.49921    0.92561    0.48940    1.000
    C445     C        0.26351    0.82733    0.29830    1.000
    H345     H        0.27290    0.81480    0.33480    1.000
    C446     C        0.24016    0.84382    0.32490    1.000
    H346     H        0.23420    0.84290    0.37880    1.000
    C447     C        0.22515    0.86189    0.27310    1.000
    C448     C        0.23328    0.86042    0.19420    1.000
    H347     H        0.22220    0.87060    0.15620    1.000
    C449     C        0.25774    0.84401    0.17160    1.000
    H348     H        0.26370    0.84400    0.11790    1.000
    C450     C        0.20474    0.88480    0.29810    1.000
    H349     H        0.19450    0.89520    0.25890    1.000
    C451     C        0.19953    0.89203    0.37210    1.000
    H350     H        0.20530    0.87730    0.41030    1.000
    C452     C        0.18586    0.92011    0.40140    1.000
    C453     C        0.18874    0.92812    0.48110    1.000
    H351     H        0.19610    0.91300    0.51550    1.000
    C454     C        0.18102    0.95785    0.51010    1.000
    H352     H        0.18390    0.96310    0.56440    1.000
    C455     C        0.16515    0.97113    0.38940    1.000
    H353     H        0.15630    0.98580    0.35710    1.000
    C456     C        0.17271    0.94199    0.35530    1.000
    H354     H        0.16890    0.93690    0.30100    1.000
    C457     C        0.39819    0.04294    0.57730    1.000
    H355     H        0.40080    0.05820    0.53150    1.000
    C458     C        0.38346    0.05174    0.64420    1.000
    H356     H        0.37610    0.07260    0.64370    1.000
    C459     C        0.37940    0.02984    0.71220    1.000
    C460     C        0.39021    0.99904    0.70840    1.000
    H357     H        0.38750    0.98290    0.75300    1.000
    C461     C        0.40486    0.99234    0.63910    1.000
    H358     H        0.41240    0.97160    0.63730    1.000
    C462     C        0.36499    0.03918    0.78380    1.000
    H359     H        0.34690    0.04990    0.77950    1.000
    C463     C        0.37546    0.03369    0.85540    1.000
    H360     H        0.39290    0.02220    0.85990    1.000
    C464     C        0.36179    0.04421    0.92710    1.000
    C465     C        0.38713    0.05680    0.99360    1.000
    H361     H        0.41270    0.05730    0.99290    1.000
    C466     C        0.37459    0.06828    0.05960    1.000
    H362     H        0.39220    0.07720    0.10370    1.000
    C467     C        0.31323    0.05342    0.00140    1.000
    H363     H        0.28700    0.05140    0.00500    1.000
    C468     C        0.32387    0.04211    0.93290    1.000
    H364     H        0.30540    0.03290    0.89000    1.000
    Ni27     Ni       0.97580    0.13538    0.52279    1.000
    Ni28     Ni       0.10601    0.34118    0.81367    1.000
    O105     O        0.01274    0.15598    0.62067    1.000
    O106     O        0.97909    0.10806    0.71063    1.000
    O107     O        0.05995    0.11070    0.61106    1.000
    O108     O        0.11474    0.17135    0.57847    1.000
    O109     O        0.19345    0.26029    0.86790    1.000
    O110     O        0.17151    0.29160    0.79094    1.000
    O111     O        0.11377    0.26716    0.93337    1.000
    O112     O        0.08443    0.28019    0.83235    1.000
    N53      N        0.94022    0.16140    0.55643    1.000
    N54      N        0.83638    0.31301    0.79893    1.000
    N55      N        0.07549    0.34732    0.90783    1.000
    N56      N        0.00511    0.40059    0.39713    1.000
    C469     C        0.04811    0.16016    0.73933    1.000
    H365     H        0.04077    0.14333    0.78803    1.000
    C470     C        0.08878    0.16381    0.70743    1.000
    H366     H        0.09537    0.14653    0.74243    1.000
    C471     C        0.05689    0.20408    0.76253    1.000
    H367     H        0.03077    0.20353    0.77683    1.000
    C472     C        0.08651    0.21746    0.83263    1.000
    H368     H        0.07317    0.19563    0.87333    1.000
    C473     C        0.12718    0.21835    0.80683    1.000
    H369     H        0.12907    0.19613    0.83543    1.000
    C474     C        0.12406    0.20865    0.71783    1.000
    H370     H        0.15057    0.21183    0.69803    1.000
    C475     C        0.07820    0.23377    0.69693    1.000
    H371     H        0.06727    0.24923    0.67343    1.000
    C476     C        0.11315    0.23670    0.67453    1.000
    H372     H        0.12997    0.25493    0.63473    1.000
    C477     C        0.01071    0.13937    0.68493    1.000
    C478     C        0.08706    0.14772    0.62513    1.000
    C479     C        0.09564    0.25836    0.86933    1.000
    C480     C        0.16588    0.25894    0.82273    1.000
    C481     C        0.93018    0.16066    0.63163    1.000
    H373     H        0.93957    0.14813    0.66813    1.000
    C482     C        0.90683    0.17715    0.65823    1.000
    H374     H        0.90087    0.17623    0.71213    1.000
    C483     C        0.89182    0.19522    0.60643    1.000
    C484     C        0.89995    0.19375    0.52753    1.000
    H375     H        0.88887    0.20393    0.48953    1.000
    C485     C        0.92441    0.17734    0.50493    1.000
    H376     H        0.93037    0.17733    0.45123    1.000
    C486     C        0.87141    0.21813    0.63143    1.000
    H377     H        0.86117    0.22853    0.59223    1.000
    C487     C        0.86620    0.22536    0.70543    1.000
    H378     H        0.87197    0.21063    0.74363    1.000
    C488     C        0.85253    0.25344    0.73473    1.000
    C489     C        0.85541    0.26145    0.81443    1.000
    H379     H        0.86277    0.24633    0.84883    1.000
    C490     C        0.84769    0.29118    0.84343    1.000
    H380     H        0.85057    0.29643    0.89773    1.000
    C491     C        0.83182    0.30446    0.72273    1.000
    H381     H        0.82297    0.31913    0.69043    1.000
    C492     C        0.83938    0.27532    0.68863    1.000
    H382     H        0.83557    0.27023    0.63433    1.000
    C493     C        0.06486    0.37627    0.91063    1.000
    H383     H        0.06747    0.39153    0.86483    1.000
    C494     C        0.05013    0.38507    0.97753    1.000
    H384     H        0.04277    0.40593    0.97703    1.000
    C495     C        0.04607    0.36317    0.04553    1.000
    C496     C        0.05688    0.33237    0.04173    1.000
    H385     H        0.05417    0.31623    0.08633    1.000
    C497     C        0.07153    0.32567    0.97243    1.000
    H386     H        0.07907    0.30493    0.97063    1.000
    C498     C        0.03166    0.37251    0.11713    1.000
    H387     H        0.01357    0.38323    0.11283    1.000
    C499     C        0.04213    0.36702    0.18873    1.000
    H388     H        0.05957    0.35553    0.19323    1.000
    C500     C        0.02846    0.37754    0.26043    1.000
    C501     C        0.05380    0.39013    0.32693    1.000
    H389     H        0.07937    0.39063    0.32623    1.000
    C502     C        0.04126    0.40161    0.39293    1.000
    H390     H        0.05887    0.41053    0.43703    1.000
    C503     C        0.97990    0.38675    0.33473    1.000
    H391     H        0.95367    0.38473    0.33833    1.000
    C504     C        0.99054    0.37544    0.26623    1.000
    H392     H        0.97207    0.36623    0.22333    1.000
    Ni29     Ni       0.64246    0.46872    0.85613    1.000
    Ni30     Ni       0.77267    0.67452    0.14701    1.000
    O113     O        0.67940    0.48932    0.95401    1.000
    O114     O        0.64575    0.44140    0.04397    1.000
    O115     O        0.72661    0.44404    0.94440    1.000
    O116     O        0.78140    0.50469    0.91181    1.000
    O117     O        0.86011    0.59363    0.20124    1.000
    O118     O        0.83817    0.62494    0.12428    1.000
    O119     O        0.78043    0.60050    0.26671    1.000
    O120     O        0.75109    0.61353    0.16569    1.000
    N57      N        0.60688    0.49474    0.88977    1.000
    N58      N        0.50304    0.64635    0.13227    1.000
    N59      N        0.74215    0.68066    0.24117    1.000
    N60      N        0.67177    0.73393    0.73047    1.000
    C505     C        0.71477    0.49350    0.07267    1.000
    H393     H        0.70743    0.47667    0.12137    1.000
    C506     C        0.75544    0.49715    0.04077    1.000
    H394     H        0.76203    0.47987    0.07577    1.000
    C507     C        0.72355    0.53742    0.09587    1.000
    H395     H        0.69743    0.53687    0.11017    1.000
    C508     C        0.75317    0.55080    0.16597    1.000
    H396     H        0.73983    0.52897    0.20667    1.000
    C509     C        0.79384    0.55169    0.14017    1.000
    H397     H        0.79573    0.52947    0.16877    1.000
    C510     C        0.79072    0.54199    0.05117    1.000
    H398     H        0.81723    0.54517    0.03137    1.000
    C511     C        0.74486    0.56711    0.03027    1.000
    H399     H        0.73393    0.58257    0.00677    1.000
    C512     C        0.77981    0.57004    0.00787    1.000
    H400     H        0.79663    0.58827    0.96807    1.000
    C513     C        0.67737    0.47271    0.01827    1.000
    C514     C        0.75372    0.48106    0.95847    1.000
    C515     C        0.76230    0.59170    0.20267    1.000
    C516     C        0.83254    0.59228    0.15607    1.000
    C517     C        0.59684    0.49400    0.96497    1.000
    H401     H        0.60623    0.48147    0.00147    1.000
    C518     C        0.57349    0.51049    0.99157    1.000
    H402     H        0.56753    0.50957    0.04547    1.000
    C519     C        0.55848    0.52856    0.93977    1.000
    C520     C        0.56661    0.52709    0.86087    1.000
    H403     H        0.55553    0.53727    0.82287    1.000
    C521     C        0.59107    0.51068    0.83827    1.000
    H404     H        0.59703    0.51067    0.78457    1.000
    C522     C        0.53807    0.55147    0.96477    1.000
    H405     H        0.52783    0.56187    0.92557    1.000
    C523     C        0.53286    0.55870    0.03877    1.000
    H406     H        0.53863    0.54397    0.07697    1.000
    C524     C        0.51919    0.58678    0.06807    1.000
    C525     C        0.52207    0.59479    0.14777    1.000
    H407     H        0.52943    0.57967    0.18217    1.000
    C526     C        0.51435    0.62452    0.17677    1.000
    H408     H        0.51723    0.62977    0.23107    1.000
    C527     C        0.49848    0.63780    0.05607    1.000
    H409     H        0.48963    0.65247    0.02377    1.000
    C528     C        0.50604    0.60866    0.02197    1.000
    H410     H        0.50223    0.60357    0.96767    1.000
    C529     C        0.73152    0.70961    0.24397    1.000
    H411     H        0.73413    0.72487    0.19817    1.000
    C530     C        0.71679    0.71841    0.31087    1.000
    H412     H        0.70943    0.73927    0.31037    1.000
    C531     C        0.71273    0.69651    0.37887    1.000
    C532     C        0.72354    0.66571    0.37507    1.000
    H413     H        0.72083    0.64957    0.41967    1.000
    C533     C        0.73819    0.65901    0.30577    1.000
    H414     H        0.74573    0.63827    0.30397    1.000
    C534     C        0.69832    0.70585    0.45047    1.000
    H415     H        0.68023    0.71657    0.44617    1.000
    C535     C        0.70879    0.70036    0.52207    1.000
    H416     H        0.72623    0.68887    0.52657    1.000
    C536     C        0.69512    0.71088    0.59377    1.000
    C537     C        0.72046    0.72347    0.66027    1.000
    H417     H        0.74603    0.72397    0.65957    1.000
    C538     C        0.70792    0.73495    0.72627    1.000
    H418     H        0.72553    0.74387    0.77037    1.000
    C539     C        0.64656    0.72009    0.66807    1.000
    H419     H        0.62033    0.71807    0.67167    1.000
    C540     C        0.65720    0.70878    0.59957    1.000
    H420     H        0.63873    0.69957    0.55667    1.000
    Ni31     Ni       0.19795    0.50708    0.18946    1.000
    Ni32     Ni       0.99215    0.43149    0.48034    1.000
    O121     O        0.17735    0.52342    0.28734    1.000
    O122     O        0.22527    0.53769    0.37730    1.000
    O123     O        0.22263    0.61591    0.27773    1.000
    O124     O        0.16198    0.61005    0.24514    1.000
    O125     O        0.07304    0.59982    0.53457    1.000
    O126     O        0.04173    0.54657    0.45761    1.000
    O127     O        0.06617    0.51327    0.60004    1.000
    O128     O        0.05314    0.47090    0.49902    1.000
    N61      N        0.17193    0.44548    0.22310    1.000
    N62      N        0.02032    0.19003    0.46560    1.000
    N63      N        0.98601    0.39483    0.57450    1.000
    N64      N        0.93274    0.27118    0.06380    1.000
    C541     C        0.17317    0.55461    0.40600    1.000
    H421     H        0.19000    0.56410    0.45470    1.000
    C542     C        0.16952    0.59163    0.37410    1.000
    H422     H        0.18680    0.61550    0.40910    1.000
    C543     C        0.12925    0.51947    0.42920    1.000
    H423     H        0.12980    0.49390    0.44350    1.000
    C544     C        0.11587    0.53571    0.49930    1.000
    H424     H        0.13770    0.54420    0.54000    1.000
    C545     C        0.11498    0.57549    0.47350    1.000
    H425     H        0.13720    0.59960    0.50210    1.000
    C546     C        0.12468    0.58207    0.38450    1.000
    H426     H        0.12150    0.60540    0.36470    1.000
    C547     C        0.09956    0.51109    0.36360    1.000
    H427     H        0.08410    0.48470    0.34010    1.000
    C548     C        0.09663    0.54311    0.34120    1.000
    H428     H        0.07840    0.54170    0.30140    1.000
    C549     C        0.19396    0.53800    0.35160    1.000
    C550     C        0.18561    0.60600    0.29180    1.000
    C551     C        0.07497    0.50394    0.53600    1.000
    C552     C        0.07439    0.57360    0.48940    1.000
    C553     C        0.17267    0.43618    0.29830    1.000
    H429     H        0.18520    0.45810    0.33480    1.000
    C554     C        0.15618    0.39634    0.32490    1.000
    H430     H        0.15710    0.39130    0.37880    1.000
    C555     C        0.13811    0.36326    0.27310    1.000
    C556     C        0.13958    0.37286    0.19420    1.000
    H431     H        0.12940    0.35160    0.15620    1.000
    C557     C        0.15599    0.41373    0.17160    1.000
    H432     H        0.15600    0.41970    0.11790    1.000
    C558     C        0.11520    0.31994    0.29810    1.000
    H433     H        0.10480    0.29930    0.25890    1.000
    C559     C        0.10797    0.30750    0.37210    1.000
    H434     H        0.12270    0.32800    0.41030    1.000
    C560     C        0.07989    0.26575    0.40140    1.000
    C561     C        0.07188    0.26062    0.48110    1.000
    H435     H        0.08700    0.28310    0.51550    1.000
    C562     C        0.04215    0.22317    0.51010    1.000
    H436     H        0.03690    0.22080    0.56440    1.000
    C563     C        0.02887    0.19402    0.38940    1.000
    H437     H        0.01420    0.17050    0.35710    1.000
    C564     C        0.05801    0.23072    0.35530    1.000
    H438     H        0.06310    0.23200    0.30100    1.000
    C565     C        0.95706    0.35525    0.57730    1.000
    H439     H        0.94180    0.34260    0.53150    1.000
    C566     C        0.94826    0.33172    0.64420    1.000
    H440     H        0.92740    0.30350    0.64370    1.000
    C567     C        0.97016    0.34956    0.71220    1.000
    C568     C        0.00096    0.39117    0.70840    1.000
    H441     H        0.01710    0.40460    0.75300    1.000
    C569     C        0.00766    0.41252    0.63910    1.000
    H442     H        0.02840    0.44080    0.63730    1.000
    C570     C        0.96082    0.32581    0.78380    1.000
    H443     H        0.95010    0.29700    0.77950    1.000
    C571     C        0.96631    0.34177    0.85540    1.000
    H444     H        0.97780    0.37070    0.85990    1.000
    C572     C        0.95579    0.31758    0.92710    1.000
    C573     C        0.94320    0.33033    0.99360    1.000
    H445     H        0.94270    0.35540    0.99290    1.000
    C574     C        0.93172    0.30631    0.05960    1.000
    H446     H        0.92280    0.31500    0.10370    1.000
    C575     C        0.94658    0.25981    0.00140    1.000
    H447     H        0.94860    0.23560    0.00500    1.000
    C576     C        0.95789    0.28176    0.93290    1.000
    H448     H        0.96710    0.27250    0.89000    1.000
    Ni33     Ni       0.86462    0.84041    0.52279    1.000
    Ni34     Ni       0.65882    0.76482    0.81367    1.000
    O129     O        0.84402    0.85675    0.62067    1.000
    O130     O        0.89194    0.87102    0.71063    1.000
    O131     O        0.88930    0.94924    0.61106    1.000
    O132     O        0.82865    0.94338    0.57847    1.000
    O133     O        0.73971    0.93315    0.86790    1.000
    O134     O        0.70840    0.87990    0.79094    1.000
    O135     O        0.73284    0.84660    0.93337    1.000
    O136     O        0.71981    0.80423    0.83235    1.000
    N65      N        0.83860    0.77881    0.55643    1.000
    N66      N        0.68699    0.52336    0.79893    1.000
    N67      N        0.65268    0.72816    0.90783    1.000
    N68      N        0.59941    0.60451    0.39713    1.000
    C577     C        0.83984    0.88794    0.73933    1.000
    H449     H        0.85667    0.89743    0.78803    1.000
    C578     C        0.83619    0.92496    0.70743    1.000
    H450     H        0.85347    0.94883    0.74243    1.000
    C579     C        0.79592    0.85280    0.76253    1.000
    H451     H        0.79647    0.82723    0.77683    1.000
    C580     C        0.78254    0.86904    0.83263    1.000
    H452     H        0.80437    0.87753    0.87333    1.000
    C581     C        0.78165    0.90882    0.80683    1.000
    H453     H        0.80387    0.93293    0.83543    1.000
    C582     C        0.79135    0.91540    0.71783    1.000
    H454     H        0.78817    0.93873    0.69803    1.000
    C583     C        0.76623    0.84442    0.69693    1.000
    H455     H        0.75077    0.81803    0.67343    1.000
    C584     C        0.76330    0.87644    0.67453    1.000
    H456     H        0.74507    0.87503    0.63473    1.000
    C585     C        0.86063    0.87133    0.68493    1.000
    C586     C        0.85228    0.93933    0.62513    1.000
    C587     C        0.74164    0.83727    0.86933    1.000
    C588     C        0.74106    0.90693    0.82273    1.000
    C589     C        0.83934    0.76951    0.63163    1.000
    H457     H        0.85187    0.79143    0.66813    1.000
    C590     C        0.82285    0.72967    0.65823    1.000
    H458     H        0.82377    0.72463    0.71213    1.000
    C591     C        0.80478    0.69659    0.60643    1.000
    C592     C        0.80625    0.70619    0.52753    1.000
    H459     H        0.79607    0.68493    0.48953    1.000
    C593     C        0.82266    0.74706    0.50493    1.000
    H460     H        0.82267    0.75303    0.45123    1.000
    C594     C        0.78187    0.65327    0.63143    1.000
    H461     H        0.77147    0.63263    0.59223    1.000
    C595     C        0.77464    0.64083    0.70543    1.000
    H462     H        0.78937    0.66133    0.74363    1.000
    C596     C        0.74656    0.59908    0.73473    1.000
    C597     C        0.73855    0.59395    0.81443    1.000
    H463     H        0.75367    0.61643    0.84883    1.000
    C598     C        0.70882    0.55650    0.84343    1.000
    H464     H        0.70357    0.55413    0.89773    1.000
    C599     C        0.69554    0.52735    0.72273    1.000
    H465     H        0.68087    0.50383    0.69043    1.000
    C600     C        0.72468    0.56405    0.68863    1.000
    H466     H        0.72977    0.56533    0.63433    1.000
    C601     C        0.62373    0.68858    0.91063    1.000
    H467     H        0.60847    0.67593    0.86483    1.000
    C602     C        0.61493    0.66505    0.97753    1.000
    H468     H        0.59407    0.63683    0.97703    1.000
    C603     C        0.63683    0.68289    0.04553    1.000
    C604     C        0.66763    0.72450    0.04173    1.000
    H469     H        0.68377    0.73793    0.08633    1.000
    C605     C        0.67433    0.74585    0.97243    1.000
    H470     H        0.69507    0.77413    0.97063    1.000
    C606     C        0.62749    0.65914    0.11713    1.000
    H471     H        0.61677    0.63033    0.11283    1.000
    C607     C        0.63298    0.67510    0.18873    1.000
    H472     H        0.64447    0.70403    0.19323    1.000
    C608     C        0.62246    0.65091    0.26043    1.000
    C609     C        0.60987    0.66366    0.32693    1.000
    H473     H        0.60937    0.68873    0.32623    1.000
    C610     C        0.59839    0.63964    0.39293    1.000
    H474     H        0.58947    0.64833    0.43703    1.000
    C611     C        0.61325    0.59314    0.33473    1.000
    H475     H        0.61527    0.56893    0.33833    1.000
    C612     C        0.62456    0.61509    0.26623    1.000
    H476     H        0.63377    0.60583    0.22333    1.000
    Ni35     Ni       0.53128    0.17375    0.85613    1.000
    Ni36     Ni       0.32548    0.09816    0.14701    1.000
    O137     O        0.51068    0.19009    0.95401    1.000
    O138     O        0.55860    0.20436    0.04397    1.000
    O139     O        0.55596    0.28258    0.94440    1.000
    O140     O        0.49531    0.27672    0.91181    1.000
    O141     O        0.40637    0.26649    0.20124    1.000
    O142     O        0.37506    0.21324    0.12428    1.000
    O143     O        0.39950    0.17994    0.26671    1.000
    O144     O        0.38647    0.13757    0.16569    1.000
    N69      N        0.50526    0.11215    0.88977    1.000
    N70      N        0.35365    0.85670    0.13227    1.000
    N71      N        0.31934    0.06150    0.24117    1.000
    N72      N        0.26607    0.93785    0.73047    1.000
    C613     C        0.50650    0.22128    0.07267    1.000
    H477     H        0.52333    0.23077    0.12137    1.000
    C614     C        0.50285    0.25830    0.04077    1.000
    H478     H        0.52013    0.28217    0.07577    1.000
    C615     C        0.46258    0.18614    0.09587    1.000
    H479     H        0.46313    0.16057    0.11017    1.000
    C616     C        0.44920    0.20238    0.16597    1.000
    H480     H        0.47103    0.21087    0.20667    1.000
    C617     C        0.44831    0.24216    0.14017    1.000
    H481     H        0.47053    0.26627    0.16877    1.000
    C618     C        0.45801    0.24874    0.05117    1.000
    H482     H        0.45483    0.27207    0.03137    1.000
    C619     C        0.43289    0.17776    0.03027    1.000
    H483     H        0.41743    0.15137    0.00677    1.000
    C620     C        0.42996    0.20978    0.00787    1.000
    H484     H        0.41173    0.20837    0.96807    1.000
    C621     C        0.52729    0.20467    0.01827    1.000
    C622     C        0.51894    0.27267    0.95847    1.000
    C623     C        0.40830    0.17061    0.20267    1.000
    C624     C        0.40772    0.24027    0.15607    1.000
    C625     C        0.50600    0.10285    0.96497    1.000
    H485     H        0.51853    0.12477    0.00147    1.000
    C626     C        0.48951    0.06301    0.99157    1.000
    H486     H        0.49043    0.05797    0.04547    1.000
    C627     C        0.47144    0.02993    0.93977    1.000
    C628     C        0.47291    0.03953    0.86087    1.000
    H487     H        0.46273    0.01827    0.82287    1.000
    C629     C        0.48932    0.08040    0.83827    1.000
    H488     H        0.48933    0.08637    0.78457    1.000
    C630     C        0.44853    0.98661    0.96477    1.000
    H489     H        0.43813    0.96597    0.92557    1.000
    C631     C        0.44130    0.97417    0.03877    1.000
    H490     H        0.45603    0.99467    0.07697    1.000
    C632     C        0.41322    0.93242    0.06807    1.000
    C633     C        0.40521    0.92729    0.14777    1.000
    H491     H        0.42033    0.94977    0.18217    1.000
    C634     C        0.37548    0.88984    0.17677    1.000
    H492     H        0.37023    0.88747    0.23107    1.000
    C635     C        0.36220    0.86069    0.05607    1.000
    H493     H        0.34753    0.83717    0.02377    1.000
    C636     C        0.39134    0.89739    0.02197    1.000
    H494     H        0.39643    0.89867    0.96767    1.000
    C637     C        0.29039    0.02192    0.24397    1.000
    H495     H        0.27513    0.00927    0.19817    1.000
    C638     C        0.28159    0.99839    0.31087    1.000
    H496     H        0.26073    0.97017    0.31037    1.000
    C639     C        0.30349    0.01623    0.37887    1.000
    C640     C        0.33429    0.05784    0.37507    1.000
    H497     H        0.35043    0.07127    0.41967    1.000
    C641     C        0.34099    0.07919    0.30577    1.000
    H498     H        0.36173    0.10747    0.30397    1.000
    C642     C        0.29415    0.99248    0.45047    1.000
    H499     H        0.28343    0.96367    0.44617    1.000
    C643     C        0.29964    0.00844    0.52207    1.000
    H500     H        0.31113    0.03737    0.52657    1.000
    C644     C        0.28912    0.98425    0.59377    1.000
    C645     C        0.27653    0.99700    0.66027    1.000
    H501     H        0.27603    0.02207    0.65957    1.000
    C646     C        0.26505    0.97298    0.72627    1.000
    H502     H        0.25613    0.98167    0.77037    1.000
    C647     C        0.27991    0.92648    0.66807    1.000
    H503     H        0.28193    0.90227    0.67167    1.000
    C648     C        0.29122    0.94843    0.59957    1.000
    H504     H        0.30043    0.93917    0.55667    1.000
