# CIF file generated by openbabel 3.1.0, see https://openbabel.org
data_I
_chemical_name_common 'DEFKUU_clean'
_cell_length_a 5.022
_cell_length_b 12.34
_cell_length_c 15.4389
_cell_angle_alpha 90
_cell_angle_beta 91.867
_cell_angle_gamma 90
_space_group_name_H-M_alt 'P 1'
_space_group_name_Hall 'P 1'
loop_
    _symmetry_equiv_pos_as_xyz
    x,y,z
loop_
    _atom_site_label
    _atom_site_type_symbol
    _atom_site_fract_x
    _atom_site_fract_y
    _atom_site_fract_z
    _atom_site_occupancy
    Cu1      Cu       0.52910    0.13530    0.88280    1.000
    Cu2      Cu       0.97090    0.63530    0.61720    1.000
    Cu3      Cu       0.47090    0.86470    0.11720    1.000
    Cu4      Cu       0.02910    0.36470    0.38280    1.000
    Cu5      Cu       0.00000    0.00000    0.00000    1.000
    Cu6      Cu       0.50000    0.50000    0.50000    1.000
    P1       P        0.50080    0.89230    0.92010    1.000
    P2       P        0.99920    0.39230    0.57990    1.000
    P3       P        0.49920    0.10770    0.07990    1.000
    P4       P        0.00080    0.60770    0.42010    1.000
    H1       H        0.43700    0.70600    0.90300    1.000
    H2       H        0.24200    0.77700    0.84800    1.000
    H3       H        0.73900    0.71800    0.79100    1.000
    H4       H        0.60600    0.82100    0.75400    1.000
    H5       H        0.06300    0.20600    0.59700    1.000
    H6       H        0.25800    0.27700    0.65200    1.000
    H7       H        0.76100    0.21800    0.70900    1.000
    H8       H        0.89400    0.32100    0.74600    1.000
    H9       H        0.56300    0.29400    0.09700    1.000
    H10      H        0.75800    0.22300    0.15200    1.000
    H11      H        0.26100    0.28200    0.20900    1.000
    H12      H        0.39400    0.17900    0.24600    1.000
    H13      H        0.93700    0.79400    0.40300    1.000
    H14      H        0.74200    0.72300    0.34800    1.000
    H15      H        0.23900    0.78200    0.29100    1.000
    H16      H        0.10600    0.67900    0.25400    1.000
    C1       C        0.41550    0.77000    0.86410    1.000
    C2       C        0.56960    0.75160    0.78220    1.000
    C3       C        0.42620    0.68350    0.71410    1.000
    C4       C        0.08450    0.27000    0.63590    1.000
    C5       C        0.93040    0.25160    0.71780    1.000
    C6       C        0.07380    0.18350    0.78590    1.000
    C7       C        0.58450    0.23000    0.13590    1.000
    C8       C        0.43040    0.24840    0.21780    1.000
    C9       C        0.57380    0.31650    0.28590    1.000
    C10      C        0.91550    0.73000    0.36410    1.000
    C11      C        0.06960    0.74840    0.28220    1.000
    C12      C        0.92620    0.81650    0.21410    1.000
    O1       O        0.79000    0.88290    0.95350    1.000
    O2       O        0.68350    0.09770    0.00080    1.000
    O3       O        0.44880    0.98510    0.85750    1.000
    O4       O        0.17330    0.68070    0.71850    1.000
    O5       O        0.54940    0.63740    0.65590    1.000
    O6       O        0.71000    0.38290    0.54650    1.000
    O7       O        0.81650    0.59770    0.49920    1.000
    O8       O        0.05120    0.48510    0.64250    1.000
    O9       O        0.32670    0.18070    0.78150    1.000
    O10      O        0.95060    0.13740    0.84410    1.000
    O11      O        0.21000    0.11710    0.04650    1.000
    O12      O        0.31650    0.90230    0.99920    1.000
    O13      O        0.55120    0.01490    0.14250    1.000
    O14      O        0.82670    0.31930    0.28150    1.000
    O15      O        0.45060    0.36260    0.34410    1.000
    O16      O        0.29000    0.61710    0.45350    1.000
    O17      O        0.18350    0.40230    0.50080    1.000
    O18      O        0.94880    0.51490    0.35750    1.000
    O19      O        0.67330    0.81930    0.21850    1.000
    O20      O        0.04940    0.86260    0.15590    1.000
