# CIF file generated by openbabel 3.1.0, see https://openbabel.org
data_I
_chemical_name_common 'EHALOP_fix'
_cell_length_a 15.9473
_cell_length_b 6.631
_cell_length_c 13.9205
_cell_angle_alpha 90
_cell_angle_beta 90
_cell_angle_gamma 90
_space_group_name_H-M_alt 'P 1'
_space_group_name_Hall 'P 1'
loop_
    _symmetry_equiv_pos_as_xyz
    x,y,z
loop_
    _atom_site_label
    _atom_site_type_symbol
    _atom_site_fract_x
    _atom_site_fract_y
    _atom_site_fract_z
    _atom_site_occupancy
    C1       C        0.21636    0.56510    0.71871    1.000
    O2       O        0.08062    0.57422    0.58505    1.000
    H3       H        0.19167    0.42223    0.69458    1.000
    C4       C        0.71722    0.06557    0.21719    1.000
    O5       O        0.58134    0.07542    0.08297    1.000
    H6       H        0.69240    0.92279    0.19292    1.000
    C7       C        0.78381    0.92729    0.71670    1.000
    O8       O        0.92025    0.91622    0.58289    1.000
    H9       H        0.80897    0.06980    0.69266    1.000
    C10      C        0.28434    0.42760    0.21808    1.000
    O11      O        0.42024    0.41808    0.08417    1.000
    H12      H        0.30901    0.57065    0.19401    1.000
    C13      C        0.78444    0.06532    0.28298    1.000
    O14      O        0.92045    0.07429    0.41733    1.000
    H15      H        0.80904    0.92247    0.30738    1.000
    C16      C        0.28400    0.56528    0.78389    1.000
    O17      O        0.41955    0.57549    0.91758    1.000
    H18      H        0.30922    0.42239    0.80767    1.000
    C19      C        0.21653    0.42718    0.28305    1.000
    O20      O        0.08166    0.41647    0.41779    1.000
    H21      H        0.19125    0.56976    0.30689    1.000
    C22      C        0.71607    0.92774    0.78188    1.000
    O23      O        0.58038    0.91824    0.91689    1.000
    H24      H        0.69135    0.07080    0.80595    1.000
    C25      C        0.78453    0.42846    0.28316    1.000
    O26      O        0.92017    0.41743    0.41820    1.000
    H27      H        0.80922    0.57124    0.30769    1.000
    C28      C        0.28392    0.92859    0.78378    1.000
    O29      O        0.41953    0.91830    0.91797    1.000
    H30      H        0.30906    0.07148    0.80749    1.000
    C31      C        0.21676    0.06386    0.28278    1.000
    O32      O        0.08136    0.07312    0.41698    1.000
    H33      H        0.19170    0.92074    0.30637    1.000
    C34      C        0.71580    0.56462    0.78208    1.000
    O35      O        0.58003    0.57496    0.91643    1.000
    H36      H        0.69084    0.42201    0.80632    1.000
    C37      C        0.21628    0.92831    0.71853    1.000
    O38      O        0.08094    0.91732    0.58415    1.000
    H39      H        0.19151    0.07109    0.69425    1.000
    C40      C        0.71731    0.42870    0.21729    1.000
    O41      O        0.58133    0.41850    0.08258    1.000
    H42      H        0.69255    0.57148    0.19308    1.000
    C43      C        0.78356    0.56418    0.71696    1.000
    O44      O        0.92054    0.57338    0.58370    1.000
    H45      H        0.80848    0.42109    0.69317    1.000
    C46      C        0.28460    0.06433    0.21787    1.000
    O47      O        0.42062    0.07495    0.08463    1.000
    H48      H        0.30950    0.92173    0.19360    1.000
    Al49     Al       0.00127    0.49458    0.50093    1.000
    Al50     Al       0.50021    0.99641    0.00072    1.000
    Al51     Al       0.00100    0.99515    0.50031    1.000
    Al52     Al       0.50004    0.49638    0.00040    1.000
    O53      O        0.00339    0.74456    0.44919    1.000
    O54      O        0.49828    0.24616    0.94921    1.000
    O55      O        0.00294    0.24460    0.55192    1.000
    O56      O        0.49957    0.74618    0.05199    1.000
    C57      C        0.68240    0.24727    0.18287    1.000
    C58      C        0.61065    0.24714    0.11180    1.000
    C59      C        0.18111    0.74650    0.68495    1.000
    C60      C        0.10966    0.74595    0.61402    1.000
    C61      C        0.31984    0.24621    0.18450    1.000
    C62      C        0.39149    0.24649    0.11377    1.000
    C63      C        0.81895    0.74548    0.68299    1.000
    C64      C        0.89112    0.74508    0.61241    1.000
    C65      C        0.31892    0.74710    0.81776    1.000
    C66      C        0.39047    0.74704    0.88852    1.000
    C67      C        0.81947    0.24668    0.31727    1.000
    C68      C        0.89109    0.24608    0.38855    1.000
    C69      C        0.68084    0.74639    0.81599    1.000
    C70      C        0.60929    0.74659    0.88729    1.000
    C71      C        0.18174    0.24533    0.31692    1.000
    C72      C        0.11049    0.24486    0.38808    1.000
    H73      H        0.00570    0.24441    0.61384    1.000
    H74      H        0.00693    0.74436    0.38739    1.000
    H75      H        0.49850    0.74597    0.11392    1.000
    H76      H        0.49513    0.24599    0.88731    1.000
