# CIF file generated by openbabel 3.1.0, see https://openbabel.org
data_I
_chemical_name_common 'image0'
_cell_length_a 6.6986
_cell_length_b 18.5179
_cell_length_c 8.4934
_cell_angle_alpha 90
_cell_angle_beta 90
_cell_angle_gamma 90
_space_group_name_H-M_alt 'P 1'
_space_group_name_Hall 'P 1'
loop_
    _symmetry_equiv_pos_as_xyz
    x,y,z
loop_
    _atom_site_label
    _atom_site_type_symbol
    _atom_site_fract_x
    _atom_site_fract_y
    _atom_site_fract_z
    _atom_site_occupancy
    C1       C        0.73520    0.75700    0.47270    1.000
    H1       H        0.71410    0.71870    0.54150    1.000
    O1       O        0.81920    0.74253    0.34700    1.000
    O2       O        0.67610    0.81706    0.51660    1.000
    O3       O        0.51300    0.95032    0.56900    1.000
    O4       O        0.83660    0.90582    0.77060    1.000
    C2       C        0.23520    0.25700    0.47270    1.000
    H2       H        0.21410    0.21870    0.54150    1.000
    O5       O        0.31920    0.24253    0.34700    1.000
    O6       O        0.17610    0.31706    0.51660    1.000
    O7       O        0.01300    0.45032    0.56900    1.000
    O8       O        0.33660    0.40582    0.77060    1.000
    C3       C        0.26480    0.24300    0.97270    1.000
    H3       H        0.28590    0.28130    0.04150    1.000
    O9       O        0.18080    0.25747    0.84700    1.000
    O10      O        0.32390    0.18294    0.01660    1.000
    O11      O        0.48700    0.04968    0.06900    1.000
    O12      O        0.16340    0.09418    0.27060    1.000
    C4       C        0.76480    0.74300    0.97270    1.000
    H4       H        0.78590    0.78130    0.04150    1.000
    O13      O        0.68080    0.75747    0.84700    1.000
    O14      O        0.82390    0.68294    0.01660    1.000
    O15      O        0.98700    0.54968    0.06900    1.000
    O16      O        0.66340    0.59418    0.27060    1.000
    C5       C        0.26480    0.75700    0.02730    1.000
    H5       H        0.28590    0.71870    0.95850    1.000
    O17      O        0.18080    0.74253    0.15300    1.000
    O18      O        0.32390    0.81706    0.98340    1.000
    O19      O        0.48700    0.95032    0.93100    1.000
    O20      O        0.16340    0.90582    0.72940    1.000
    C6       C        0.76480    0.25700    0.02730    1.000
    H6       H        0.78590    0.21870    0.95850    1.000
    O21      O        0.68080    0.24253    0.15300    1.000
    O22      O        0.82390    0.31706    0.98340    1.000
    O23      O        0.98700    0.45032    0.93100    1.000
    O24      O        0.66340    0.40582    0.72940    1.000
    C7       C        0.73520    0.24300    0.52730    1.000
    H7       H        0.71410    0.28130    0.45850    1.000
    O25      O        0.81920    0.25747    0.65300    1.000
    O26      O        0.67610    0.18294    0.48340    1.000
    O27      O        0.51300    0.04968    0.43100    1.000
    O28      O        0.83660    0.09418    0.22940    1.000
    C8       C        0.23520    0.74300    0.52730    1.000
    H8       H        0.21410    0.78130    0.45850    1.000
    O29      O        0.31920    0.75747    0.65300    1.000
    O30      O        0.17610    0.68294    0.48340    1.000
    O31      O        0.01300    0.54968    0.43100    1.000
    O32      O        0.33660    0.59418    0.22940    1.000
    C9       C        0.42610    0.00000    0.50000    1.000
    H9       H        0.28730    0.00000    0.50000    1.000
    C10      C        0.92610    0.50000    0.50000    1.000
    H10      H        0.78730    0.50000    0.50000    1.000
    C11      C        0.57390    0.00000    0.00000    1.000
    H11      H        0.71270    0.00000    0.00000    1.000
    C12      C        0.07390    0.50000    0.00000    1.000
    H12      H        0.21270    0.50000    0.00000    1.000
    C13      C        0.00000    0.87500    0.75000    1.000
    H13      H        0.00000    0.82480    0.75000    1.000
    C14      C        0.50000    0.37500    0.75000    1.000
    H14      H        0.50000    0.32480    0.75000    1.000
    C15      C        0.00000    0.12500    0.25000    1.000
    H15      H        0.00000    0.17520    0.25000    1.000
    C16      C        0.50000    0.62500    0.25000    1.000
    H16      H        0.50000    0.67520    0.25000    1.000
    Tb1      Tb       0.50000    0.85734    0.75000    1.000
    Tb2      Tb       0.00000    0.35734    0.75000    1.000
    Tb3      Tb       0.50000    0.14266    0.25000    1.000
    Tb4      Tb       0.00000    0.64266    0.25000    1.000
