# CIF file generated by openbabel 3.1.0, see https://openbabel.org
data_I
_chemical_name_common 'image0'
_cell_length_a 31.654
_cell_length_b 9.7728
_cell_length_c 37.31
_cell_angle_alpha 90
_cell_angle_beta 90
_cell_angle_gamma 90
_space_group_name_H-M_alt 'P 1'
_space_group_name_Hall 'P 1'
loop_
    _symmetry_equiv_pos_as_xyz
    x,y,z
loop_
    _atom_site_label
    _atom_site_type_symbol
    _atom_site_fract_x
    _atom_site_fract_y
    _atom_site_fract_z
    _atom_site_occupancy
    C1       C        0.70070    0.13180    0.56620    1.000
    H1       H        0.71710    0.04930    0.57280    1.000
    H2       H        0.67420    0.10020    0.55470    1.000
    Zn1      Zn       0.93133    0.85330    0.82180    1.000
    O1       O        0.70210    0.46070    0.46590    1.000
    C2       C        0.79800    0.12860    0.56130    1.000
    H3       H        0.78200    0.04790    0.56990    1.000
    H4       H        0.82280    0.09480    0.54770    1.000
    Zn2      Zn       0.89185    0.55560    0.85674    1.000
    O2       O        0.86070    0.78340    0.37410    1.000
    C3       C        0.75400    0.11790    0.63470    1.000
    H5       H        0.75590    0.07720    0.65890    1.000
    H6       H        0.75240    0.04150    0.61730    1.000
    O3       O        0.89130    0.58740    0.35910    1.000
    O4       O        0.90170    0.44170    0.61540    1.000
    O5       O        0.90920    0.75640    0.77960    1.000
    O6       O        0.91240    0.55740    0.80720    1.000
    O7       O        0.65220    0.42610    0.69220    1.000
    O8       O        0.48070    0.76130    0.65780    1.000
    O9       O        0.44770    0.60640    0.62370    1.000
    C4       C        0.72560    0.21090    0.53890    1.000
    C5       C        0.77020    0.20930    0.53620    1.000
    C6       C        0.78880    0.28800    0.51020    1.000
    H7       H        0.81880    0.28540    0.50880    1.000
    C7       C        0.76810    0.37060    0.48590    1.000
    C8       C        0.72410    0.37890    0.48980    1.000
    C9       C        0.70450    0.30280    0.51650    1.000
    H8       H        0.67490    0.31390    0.51970    1.000
    C10      C        0.65610    0.46400    0.46680    1.000
    H9       H        0.64570    0.52650    0.44830    1.000
    H10      H        0.64510    0.37180    0.46230    1.000
    H11      H        0.64660    0.49560    0.49040    1.000
    C11      C        0.79050    0.44500    0.45590    1.000
    C12      C        0.82320    0.38000    0.43730    1.000
    H12      H        0.83020    0.28810    0.44270    1.000
    C13      C        0.84570    0.44900    0.41080    1.000
    H13      H        0.86620    0.40110    0.39720    1.000
    C14      C        0.83880    0.58400    0.40420    1.000
    C15      C        0.80780    0.65200    0.42290    1.000
    H14      H        0.80340    0.74670    0.41900    1.000
    C16      C        0.78210    0.58100    0.44830    1.000
    H15      H        0.75950    0.62660    0.45990    1.000
    C17      C        0.86620    0.66300    0.37850    1.000
    C18      C        0.81330    0.20840    0.59330    1.000
    C19      C        0.79410    0.19670    0.62760    1.000
    C20      C        0.81060    0.27830    0.65580    1.000
    H16      H        0.79560    0.28060    0.67780    1.000
    C21      C        0.84610    0.35270    0.65300    1.000
    C22      C        0.86460    0.36690    0.61730    1.000
    C23      C        0.84900    0.29040    0.58930    1.000
    H17      H        0.86290    0.29360    0.56680    1.000
    C24      C        0.92500    0.43700    0.58120    1.000
    H18      H        0.95050    0.49290    0.58300    1.000
    H19      H        0.93300    0.34180    0.57590    1.000
    H20      H        0.90700    0.47170    0.56190    1.000
    C25      C        0.86420    0.42900    0.68420    1.000
    C26      C        0.86580    0.36000    0.71550    1.000
    H21      H        0.85650    0.26740    0.71700    1.000
    C27      C        0.88210    0.43000    0.74650    1.000
    H22      H        0.88460    0.38000    0.76820    1.000
    C28      C        0.89390    0.56100    0.74700    1.000
    C29      C        0.89210    0.62800    0.71390    1.000
    H23      H        0.90050    0.72120    0.71270    1.000
    C30      C        0.87890    0.56600    0.68360    1.000
    H24      H        0.87950    0.61440    0.66160    1.000
    C31      C        0.90590    0.63600    0.78080    1.000
    C32      C        0.71340    0.19860    0.63240    1.000
    C33      C        0.68900    0.20720    0.60060    1.000
    C34      C        0.65290    0.28900    0.60290    1.000
    H25      H        0.63560    0.29350    0.58220    1.000
    C35      C        0.64060    0.36100    0.63070    1.000
    C36      C        0.66620    0.35300    0.66250    1.000
    C37      C        0.70120    0.28050    0.66330    1.000
    H26      H        0.71850    0.28140    0.68410    1.000
    C38      C        0.67880    0.40600    0.72230    1.000
    H27      H        0.66790    0.45920    0.74260    1.000
    H28      H        0.67940    0.30900    0.72850    1.000
    H29      H        0.70740    0.43730    0.71650    1.000
    C39      C        0.60010    0.44200    0.63070    1.000
    C40      C        0.56400    0.39300    0.61410    1.000
    H30      H        0.56520    0.30750    0.60180    1.000
    C41      C        0.52640    0.46400    0.61480    1.000
    H31      H        0.50270    0.42910    0.60210    1.000
    C42      C        0.52230    0.59100    0.63470    1.000
    C43      C        0.55770    0.63700    0.64940    1.000
    H32      H        0.55690    0.72310    0.66120    1.000
    C44      C        0.59580    0.56800    0.64880    1.000
    H33      H        0.61950    0.60540    0.66080    1.000
    C45      C        0.47900    0.65300    0.63680    1.000
    O10      O        0.83780    0.48500    0.83110    1.000
    C46      C        0.79920    0.47700    0.83420    1.000
    C47      C        0.78500    0.44700    0.87190    1.000
    H34      H        0.75440    0.44160    0.87270    1.000
    H35      H        0.79740    0.35980    0.87970    1.000
    H36      H        0.79500    0.52040    0.88780    1.000
    N1       N        0.77090    0.49100    0.80910    1.000
    C48      C        0.78400    0.51600    0.77190    1.000
    H37      H        0.75820    0.52370    0.75690    1.000
    H38      H        0.79960    0.60160    0.77060    1.000
    H39      H        0.80100    0.44020    0.76340    1.000
    C49      C        0.72560    0.47600    0.81580    1.000
    H40      H        0.71000    0.49020    0.79340    1.000
    H41      H        0.71980    0.38380    0.82490    1.000
    H42      H        0.71650    0.54380    0.83360    1.000
    C50      C        0.81660    0.39700    0.84620    1.000
    C51      C        0.79700    0.45000    0.88000    1.000
    H43      H        0.78000    0.37710    0.89120    1.000
    H44      H        0.81870    0.48050    0.89660    1.000
    H45      H        0.77810    0.52730    0.87420    1.000
    N2       N        0.80950    0.26900    0.83840    1.000
    C52      C        0.82800    0.19900    0.80800    1.000
    H46      H        0.81860    0.10370    0.80720    1.000
    H47      H        0.81990    0.24510    0.78550    1.000
    H48      H        0.85920    0.20070    0.80990    1.000
    C53      C        0.77600    0.19100    0.85700    1.000
    H49      H        0.77580    0.09740    0.84710    1.000
    H50      H        0.78190    0.18870    0.88230    1.000
    H51      H        0.74880    0.23470    0.85220    1.000
    C54      C        0.79930    0.86820    0.06620    1.000
    H52      H        0.78290    0.95070    0.07280    1.000
    H53      H        0.82580    0.89980    0.05470    1.000
    Zn3      Zn       0.56867    0.14670    0.32180    1.000
    O11      O        0.79790    0.53930    0.96590    1.000
    C55      C        0.70200    0.87140    0.06130    1.000
    H54      H        0.71800    0.95210    0.06990    1.000
    H55      H        0.67720    0.90520    0.04770    1.000
    Zn4      Zn       0.60815    0.44440    0.35674    1.000
    O12      O        0.63930    0.21660    0.87410    1.000
    C56      C        0.74600    0.88210    0.13470    1.000
    H56      H        0.74410    0.92280    0.15890    1.000
    H57      H        0.74760    0.95850    0.11730    1.000
    O13      O        0.60870    0.41260    0.85910    1.000
    O14      O        0.59830    0.55830    0.11540    1.000
    O15      O        0.59080    0.24360    0.27960    1.000
    O16      O        0.58760    0.44260    0.30720    1.000
    O17      O        0.84780    0.57390    0.19220    1.000
    O18      O        0.01930    0.23870    0.15780    1.000
    O19      O        0.05230    0.39360    0.12370    1.000
    C57      C        0.77440    0.78910    0.03890    1.000
    C58      C        0.72980    0.79070    0.03620    1.000
    C59      C        0.71120    0.71200    0.01020    1.000
    H58      H        0.68120    0.71460    0.00880    1.000
    C60      C        0.73190    0.62940    0.98590    1.000
    C61      C        0.77590    0.62110    0.98980    1.000
    C62      C        0.79550    0.69720    0.01650    1.000
    H59      H        0.82510    0.68610    0.01970    1.000
    C63      C        0.84390    0.53600    0.96680    1.000
    H60      H        0.85430    0.47350    0.94830    1.000
    H61      H        0.85490    0.62820    0.96230    1.000
    H62      H        0.85340    0.50440    0.99040    1.000
    C64      C        0.70950    0.55500    0.95590    1.000
    C65      C        0.67680    0.62000    0.93730    1.000
    H63      H        0.66980    0.71190    0.94270    1.000
    C66      C        0.65430    0.55100    0.91080    1.000
    H64      H        0.63380    0.59890    0.89720    1.000
    C67      C        0.66120    0.41600    0.90420    1.000
    C68      C        0.69220    0.34800    0.92290    1.000
    H65      H        0.69660    0.25330    0.91900    1.000
    C69      C        0.71790    0.41900    0.94830    1.000
    H66      H        0.74050    0.37340    0.95990    1.000
    C70      C        0.63380    0.33700    0.87850    1.000
    C71      C        0.68670    0.79160    0.09330    1.000
    C72      C        0.70590    0.80330    0.12760    1.000
    C73      C        0.68940    0.72170    0.15580    1.000
    H67      H        0.70440    0.71940    0.17780    1.000
    C74      C        0.65390    0.64730    0.15300    1.000
    C75      C        0.63540    0.63310    0.11730    1.000
    C76      C        0.65100    0.70960    0.08930    1.000
    H68      H        0.63710    0.70640    0.06680    1.000
    C77      C        0.57500    0.56300    0.08120    1.000
    H69      H        0.54950    0.50710    0.08300    1.000
    H70      H        0.56700    0.65820    0.07590    1.000
    H71      H        0.59300    0.52830    0.06190    1.000
    C78      C        0.63580    0.57100    0.18420    1.000
    C79      C        0.63420    0.64000    0.21550    1.000
    H72      H        0.64350    0.73260    0.21700    1.000
    C80      C        0.61790    0.57000    0.24650    1.000
    H73      H        0.61540    0.62000    0.26820    1.000
    C81      C        0.60610    0.43900    0.24700    1.000
    C82      C        0.60790    0.37200    0.21390    1.000
    H74      H        0.59950    0.27880    0.21270    1.000
    C83      C        0.62110    0.43400    0.18360    1.000
    H75      H        0.62050    0.38560    0.16160    1.000
    C84      C        0.59410    0.36400    0.28080    1.000
    C85      C        0.78660    0.80140    0.13240    1.000
    C86      C        0.81100    0.79280    0.10060    1.000
    C87      C        0.84710    0.71100    0.10290    1.000
    H76      H        0.86440    0.70650    0.08220    1.000
    C88      C        0.85940    0.63900    0.13070    1.000
    C89      C        0.83380    0.64700    0.16250    1.000
    C90      C        0.79880    0.71950    0.16330    1.000
    H77      H        0.78150    0.71860    0.18410    1.000
    C91      C        0.82120    0.59400    0.22230    1.000
    H78      H        0.83210    0.54080    0.24260    1.000
    H79      H        0.82060    0.69100    0.22850    1.000
    H80      H        0.79260    0.56270    0.21650    1.000
    C92      C        0.89990    0.55800    0.13070    1.000
    C93      C        0.93600    0.60700    0.11410    1.000
    H81      H        0.93480    0.69250    0.10180    1.000
    C94      C        0.97360    0.53600    0.11480    1.000
    H82      H        0.99730    0.57090    0.10210    1.000
    C95      C        0.97770    0.40900    0.13470    1.000
    C96      C        0.94230    0.36300    0.14940    1.000
    H83      H        0.94310    0.27690    0.16120    1.000
    C97      C        0.90420    0.43200    0.14880    1.000
    H84      H        0.88050    0.39460    0.16080    1.000
    C98      C        0.02100    0.34700    0.13680    1.000
    O20      O        0.66220    0.51500    0.33110    1.000
    C99      C        0.70080    0.52300    0.33420    1.000
    C100     C        0.71500    0.55300    0.37190    1.000
    H85      H        0.74560    0.55840    0.37270    1.000
    H86      H        0.70260    0.64020    0.37970    1.000
    H87      H        0.70500    0.47960    0.38780    1.000
    N3       N        0.72910    0.50900    0.30910    1.000
    C101     C        0.71600    0.48400    0.27190    1.000
    H88      H        0.74180    0.47630    0.25690    1.000
    H89      H        0.70040    0.39840    0.27060    1.000
    H90      H        0.69900    0.55980    0.26340    1.000
    C102     C        0.77440    0.52400    0.31580    1.000
    H91      H        0.79000    0.50980    0.29340    1.000
    H92      H        0.78020    0.61620    0.32490    1.000
    H93      H        0.78350    0.45620    0.33360    1.000
    C103     C        0.68340    0.60300    0.34620    1.000
    C104     C        0.70300    0.55000    0.38000    1.000
    H94      H        0.72000    0.62290    0.39120    1.000
    H95      H        0.68130    0.51950    0.39660    1.000
    H96      H        0.72190    0.47270    0.37420    1.000
    N4       N        0.69050    0.73100    0.33840    1.000
    C105     C        0.67200    0.80100    0.30800    1.000
    H97      H        0.68140    0.89630    0.30720    1.000
    H98      H        0.68010    0.75490    0.28550    1.000
    H99      H        0.64080    0.79930    0.30990    1.000
    C106     C        0.72400    0.80900    0.35700    1.000
    H100     H        0.72420    0.90260    0.34710    1.000
    H101     H        0.71810    0.81130    0.38230    1.000
    H102     H        0.75120    0.76530    0.35220    1.000
    C107     C        0.29930    0.63180    0.93380    1.000
    H103     H        0.28290    0.54930    0.92720    1.000
    H104     H        0.32580    0.60020    0.94530    1.000
    Zn5      Zn       0.06867    0.35330    0.67820    1.000
    O21      O        0.29790    0.96070    0.03410    1.000
    C108     C        0.20200    0.62860    0.93870    1.000
    H105     H        0.21800    0.54790    0.93010    1.000
    H106     H        0.17720    0.59480    0.95230    1.000
    Zn6      Zn       0.10815    0.05560    0.64326    1.000
    O22      O        0.13930    0.28340    0.12590    1.000
    C109     C        0.24600    0.61790    0.86530    1.000
    H107     H        0.24410    0.57720    0.84110    1.000
    H108     H        0.24760    0.54150    0.88270    1.000
    O23      O        0.10870    0.08740    0.14090    1.000
    O24      O        0.09830    0.94170    0.88460    1.000
    O25      O        0.09080    0.25640    0.72040    1.000
    O26      O        0.08760    0.05740    0.69280    1.000
    O27      O        0.34780    0.92610    0.80780    1.000
    O28      O        0.51930    0.26130    0.84220    1.000
    O29      O        0.55230    0.10640    0.87630    1.000
    C110     C        0.27440    0.71090    0.96110    1.000
    C111     C        0.22980    0.70930    0.96380    1.000
    C112     C        0.21120    0.78800    0.98980    1.000
    H109     H        0.18120    0.78540    0.99120    1.000
    C113     C        0.23190    0.87060    0.01410    1.000
    C114     C        0.27590    0.87890    0.01020    1.000
    C115     C        0.29550    0.80280    0.98350    1.000
    H110     H        0.32510    0.81390    0.98030    1.000
    C116     C        0.34390    0.96400    0.03320    1.000
    H111     H        0.35430    0.02650    0.05170    1.000
    H112     H        0.35490    0.87180    0.03770    1.000
    H113     H        0.35340    0.99560    0.00960    1.000
    C117     C        0.20950    0.94500    0.04410    1.000
    C118     C        0.17680    0.88000    0.06270    1.000
    H114     H        0.16980    0.78810    0.05730    1.000
    C119     C        0.15430    0.94900    0.08920    1.000
    H115     H        0.13380    0.90110    0.10280    1.000
    C120     C        0.16120    0.08400    0.09580    1.000
    C121     C        0.19220    0.15200    0.07710    1.000
    H116     H        0.19660    0.24670    0.08100    1.000
    C122     C        0.21790    0.08100    0.05170    1.000
    H117     H        0.24050    0.12660    0.04010    1.000
    C123     C        0.13380    0.16300    0.12150    1.000
    C124     C        0.18670    0.70840    0.90670    1.000
    C125     C        0.20590    0.69670    0.87240    1.000
    C126     C        0.18940    0.77830    0.84420    1.000
    H118     H        0.20440    0.78060    0.82220    1.000
    C127     C        0.15390    0.85270    0.84700    1.000
    C128     C        0.13540    0.86690    0.88270    1.000
    C129     C        0.15100    0.79040    0.91070    1.000
    H119     H        0.13710    0.79360    0.93320    1.000
    C130     C        0.07500    0.93700    0.91880    1.000
    H120     H        0.04950    0.99290    0.91700    1.000
    H121     H        0.06700    0.84180    0.92410    1.000
    H122     H        0.09300    0.97170    0.93810    1.000
    C131     C        0.13580    0.92900    0.81580    1.000
    C132     C        0.13420    0.86000    0.78450    1.000
    H123     H        0.14350    0.76740    0.78300    1.000
    C133     C        0.11790    0.93000    0.75350    1.000
    H124     H        0.11540    0.88000    0.73180    1.000
    C134     C        0.10610    0.06100    0.75300    1.000
    C135     C        0.10790    0.12800    0.78610    1.000
    H125     H        0.09950    0.22120    0.78730    1.000
    C136     C        0.12110    0.06600    0.81640    1.000
    H126     H        0.12050    0.11440    0.83840    1.000
    C137     C        0.09410    0.13600    0.71920    1.000
    C138     C        0.28660    0.69860    0.86760    1.000
    C139     C        0.31100    0.70720    0.89940    1.000
    C140     C        0.34710    0.78900    0.89710    1.000
    H127     H        0.36440    0.79350    0.91780    1.000
    C141     C        0.35940    0.86100    0.86930    1.000
    C142     C        0.33380    0.85300    0.83750    1.000
    C143     C        0.29880    0.78050    0.83670    1.000
    H128     H        0.28150    0.78140    0.81590    1.000
    C144     C        0.32120    0.90600    0.77770    1.000
    H129     H        0.33210    0.95920    0.75740    1.000
    H130     H        0.32060    0.80900    0.77150    1.000
    H131     H        0.29260    0.93730    0.78350    1.000
    C145     C        0.39990    0.94200    0.86930    1.000
    C146     C        0.43600    0.89300    0.88590    1.000
    H132     H        0.43480    0.80750    0.89820    1.000
    C147     C        0.47360    0.96400    0.88520    1.000
    H133     H        0.49730    0.92910    0.89790    1.000
    C148     C        0.47770    0.09100    0.86530    1.000
    C149     C        0.44230    0.13700    0.85060    1.000
    H134     H        0.44310    0.22310    0.83880    1.000
    C150     C        0.40420    0.06800    0.85120    1.000
    H135     H        0.38050    0.10540    0.83920    1.000
    C151     C        0.52100    0.15300    0.86320    1.000
    O30      O        0.16220    0.98500    0.66890    1.000
    C152     C        0.20080    0.97700    0.66580    1.000
    C153     C        0.21500    0.94700    0.62810    1.000
    H136     H        0.24560    0.94160    0.62730    1.000
    H137     H        0.20260    0.85980    0.62030    1.000
    H138     H        0.20500    0.02040    0.61220    1.000
    N5       N        0.22910    0.99100    0.69090    1.000
    C154     C        0.21600    0.01600    0.72810    1.000
    H139     H        0.24180    0.02370    0.74310    1.000
    H140     H        0.20040    0.10160    0.72940    1.000
    H141     H        0.19900    0.94020    0.73660    1.000
    C155     C        0.27440    0.97600    0.68420    1.000
    H142     H        0.29000    0.99020    0.70660    1.000
    H143     H        0.28020    0.88380    0.67510    1.000
    H144     H        0.28350    0.04380    0.66640    1.000
    C156     C        0.18340    0.89700    0.65380    1.000
    C157     C        0.20300    0.95000    0.62000    1.000
    H145     H        0.22000    0.87710    0.60880    1.000
    H146     H        0.18130    0.98050    0.60340    1.000
    H147     H        0.22190    0.02730    0.62580    1.000
    N6       N        0.19050    0.76900    0.66160    1.000
    C158     C        0.17200    0.69900    0.69200    1.000
    H148     H        0.18140    0.60370    0.69280    1.000
    H149     H        0.18010    0.74510    0.71450    1.000
    H150     H        0.14080    0.70070    0.69010    1.000
    C159     C        0.22400    0.69100    0.64300    1.000
    H151     H        0.22420    0.59740    0.65290    1.000
    H152     H        0.21810    0.68870    0.61770    1.000
    H153     H        0.25120    0.73470    0.64780    1.000
    C160     C        0.20070    0.36820    0.43380    1.000
    H154     H        0.21710    0.45070    0.42720    1.000
    H155     H        0.17420    0.39980    0.44530    1.000
    Zn7      Zn       0.43133    0.64670    0.17820    1.000
    O31      O        0.20210    0.03930    0.53410    1.000
    C161     C        0.29800    0.37140    0.43870    1.000
    H156     H        0.28200    0.45210    0.43010    1.000
    H157     H        0.32280    0.40520    0.45230    1.000
    Zn8      Zn       0.39185    0.94440    0.14326    1.000
    O32      O        0.36070    0.71660    0.62590    1.000
    C162     C        0.25400    0.38210    0.36530    1.000
    H158     H        0.25590    0.42280    0.34110    1.000
    H159     H        0.25240    0.45850    0.38270    1.000
    O33      O        0.39130    0.91260    0.64090    1.000
    O34      O        0.40170    0.05830    0.38460    1.000
    O35      O        0.40920    0.74360    0.22040    1.000
    O36      O        0.41240    0.94260    0.19280    1.000
    O37      O        0.15220    0.07390    0.30780    1.000
    O38      O        0.98070    0.73870    0.34220    1.000
    O39      O        0.94770    0.89360    0.37630    1.000
    C163     C        0.22560    0.28910    0.46110    1.000
    C164     C        0.27020    0.29070    0.46380    1.000
    C165     C        0.28880    0.21200    0.48980    1.000
    H160     H        0.31880    0.21460    0.49120    1.000
    C166     C        0.26810    0.12940    0.51410    1.000
    C167     C        0.22410    0.12110    0.51020    1.000
    C168     C        0.20450    0.19720    0.48350    1.000
    H161     H        0.17490    0.18610    0.48030    1.000
    C169     C        0.15610    0.03600    0.53320    1.000
    H162     H        0.14570    0.97350    0.55170    1.000
    H163     H        0.14510    0.12820    0.53770    1.000
    H164     H        0.14660    0.00440    0.50960    1.000
    C170     C        0.29050    0.05500    0.54410    1.000
    C171     C        0.32320    0.12000    0.56270    1.000
    H165     H        0.33020    0.21190    0.55730    1.000
    C172     C        0.34570    0.05100    0.58920    1.000
    H166     H        0.36620    0.09890    0.60280    1.000
    C173     C        0.33880    0.91600    0.59580    1.000
    C174     C        0.30780    0.84800    0.57710    1.000
    H167     H        0.30340    0.75330    0.58100    1.000
    C175     C        0.28210    0.91900    0.55170    1.000
    H168     H        0.25950    0.87340    0.54010    1.000
    C176     C        0.36620    0.83700    0.62150    1.000
    C177     C        0.31330    0.29160    0.40670    1.000
    C178     C        0.29410    0.30330    0.37240    1.000
    C179     C        0.31060    0.22170    0.34420    1.000
    H169     H        0.29560    0.21940    0.32220    1.000
    C180     C        0.34610    0.14730    0.34700    1.000
    C181     C        0.36460    0.13310    0.38270    1.000
    C182     C        0.34900    0.20960    0.41070    1.000
    H170     H        0.36290    0.20640    0.43320    1.000
    C183     C        0.42500    0.06300    0.41880    1.000
    H171     H        0.45050    0.00710    0.41700    1.000
    H172     H        0.43300    0.15820    0.42410    1.000
    H173     H        0.40700    0.02830    0.43810    1.000
    C184     C        0.36420    0.07100    0.31580    1.000
    C185     C        0.36580    0.14000    0.28450    1.000
    H174     H        0.35650    0.23260    0.28300    1.000
    C186     C        0.38210    0.07000    0.25350    1.000
    H175     H        0.38460    0.12000    0.23180    1.000
    C187     C        0.39390    0.93900    0.25300    1.000
    C188     C        0.39210    0.87200    0.28610    1.000
    H176     H        0.40050    0.77880    0.28730    1.000
    C189     C        0.37890    0.93400    0.31640    1.000
    H177     H        0.37950    0.88560    0.33840    1.000
    C190     C        0.40590    0.86400    0.21920    1.000
    C191     C        0.21340    0.30140    0.36760    1.000
    C192     C        0.18900    0.29280    0.39940    1.000
    C193     C        0.15290    0.21100    0.39710    1.000
    H178     H        0.13560    0.20650    0.41780    1.000
    C194     C        0.14060    0.13900    0.36930    1.000
    C195     C        0.16620    0.14700    0.33750    1.000
    C196     C        0.20120    0.21950    0.33670    1.000
    H179     H        0.21850    0.21860    0.31590    1.000
    C197     C        0.17880    0.09400    0.27770    1.000
    H180     H        0.16790    0.04080    0.25740    1.000
    H181     H        0.17940    0.19100    0.27150    1.000
    H182     H        0.20740    0.06270    0.28350    1.000
    C198     C        0.10010    0.05800    0.36930    1.000
    C199     C        0.06400    0.10700    0.38590    1.000
    H183     H        0.06520    0.19250    0.39820    1.000
    C200     C        0.02640    0.03600    0.38520    1.000
    H184     H        0.00270    0.07090    0.39790    1.000
    C201     C        0.02230    0.90900    0.36530    1.000
    C202     C        0.05770    0.86300    0.35060    1.000
    H185     H        0.05690    0.77690    0.33880    1.000
    C203     C        0.09580    0.93200    0.35120    1.000
    H186     H        0.11950    0.89460    0.33920    1.000
    C204     C        0.97900    0.84700    0.36320    1.000
    O40      O        0.33780    0.01500    0.16890    1.000
    C205     C        0.29920    0.02300    0.16580    1.000
    C206     C        0.28500    0.05300    0.12810    1.000
    H187     H        0.25440    0.05840    0.12730    1.000
    H188     H        0.29740    0.14020    0.12030    1.000
    H189     H        0.29500    0.97960    0.11220    1.000
    N7       N        0.27090    0.00900    0.19090    1.000
    C207     C        0.28400    0.98400    0.22810    1.000
    H190     H        0.25820    0.97630    0.24310    1.000
    H191     H        0.29960    0.89840    0.22940    1.000
    H192     H        0.30100    0.05980    0.23660    1.000
    C208     C        0.22560    0.02400    0.18420    1.000
    H193     H        0.21000    0.00980    0.20660    1.000
    H194     H        0.21980    0.11620    0.17510    1.000
    H195     H        0.21650    0.95620    0.16640    1.000
    C209     C        0.31660    0.10300    0.15380    1.000
    C210     C        0.29700    0.05000    0.12000    1.000
    H196     H        0.28000    0.12290    0.10880    1.000
    H197     H        0.31870    0.01950    0.10340    1.000
    H198     H        0.27810    0.97270    0.12580    1.000
    N8       N        0.30950    0.23100    0.16160    1.000
    C211     C        0.32800    0.30100    0.19200    1.000
    H199     H        0.31860    0.39630    0.19280    1.000
    H200     H        0.31990    0.25490    0.21450    1.000
    H201     H        0.35920    0.29930    0.19010    1.000
    C212     C        0.27600    0.30900    0.14300    1.000
    H202     H        0.27580    0.40260    0.15290    1.000
    H203     H        0.28190    0.31130    0.11770    1.000
    H204     H        0.24880    0.26530    0.14780    1.000
    C213     C        0.29930    0.86820    0.43380    1.000
    H205     H        0.28290    0.95070    0.42720    1.000
    H206     H        0.32580    0.89980    0.44530    1.000
    Zn9      Zn       0.06867    0.14670    0.17820    1.000
    O41      O        0.29790    0.53930    0.53410    1.000
    C214     C        0.20200    0.87140    0.43870    1.000
    H207     H        0.21800    0.95210    0.43010    1.000
    H208     H        0.17720    0.90520    0.45230    1.000
    Zn10     Zn       0.10815    0.44440    0.14326    1.000
    O42      O        0.13930    0.21660    0.62590    1.000
    C215     C        0.24600    0.88210    0.36530    1.000
    H209     H        0.24410    0.92280    0.34110    1.000
    H210     H        0.24760    0.95850    0.38270    1.000
    O43      O        0.10870    0.41260    0.64090    1.000
    O44      O        0.09830    0.55830    0.38460    1.000
    O45      O        0.09080    0.24360    0.22040    1.000
    O46      O        0.08760    0.44260    0.19280    1.000
    O47      O        0.34780    0.57390    0.30780    1.000
    O48      O        0.51930    0.23870    0.34220    1.000
    O49      O        0.55230    0.39360    0.37630    1.000
    C216     C        0.27440    0.78910    0.46110    1.000
    C217     C        0.22980    0.79070    0.46380    1.000
    C218     C        0.21120    0.71200    0.48980    1.000
    H211     H        0.18120    0.71460    0.49120    1.000
    C219     C        0.23190    0.62940    0.51410    1.000
    C220     C        0.27590    0.62110    0.51020    1.000
    C221     C        0.29550    0.69720    0.48350    1.000
    H212     H        0.32510    0.68610    0.48030    1.000
    C222     C        0.34390    0.53600    0.53320    1.000
    H213     H        0.35430    0.47350    0.55170    1.000
    H214     H        0.35490    0.62820    0.53770    1.000
    H215     H        0.35340    0.50440    0.50960    1.000
    C223     C        0.20950    0.55500    0.54410    1.000
    C224     C        0.17680    0.62000    0.56270    1.000
    H216     H        0.16980    0.71190    0.55730    1.000
    C225     C        0.15430    0.55100    0.58920    1.000
    H217     H        0.13380    0.59890    0.60280    1.000
    C226     C        0.16120    0.41600    0.59580    1.000
    C227     C        0.19220    0.34800    0.57710    1.000
    H218     H        0.19660    0.25330    0.58100    1.000
    C228     C        0.21790    0.41900    0.55170    1.000
    H219     H        0.24050    0.37340    0.54010    1.000
    C229     C        0.13380    0.33700    0.62150    1.000
    C230     C        0.18670    0.79160    0.40670    1.000
    C231     C        0.20590    0.80330    0.37240    1.000
    C232     C        0.18940    0.72170    0.34420    1.000
    H220     H        0.20440    0.71940    0.32220    1.000
    C233     C        0.15390    0.64730    0.34700    1.000
    C234     C        0.13540    0.63310    0.38270    1.000
    C235     C        0.15100    0.70960    0.41070    1.000
    H221     H        0.13710    0.70640    0.43320    1.000
    C236     C        0.07500    0.56300    0.41880    1.000
    H222     H        0.04950    0.50710    0.41700    1.000
    H223     H        0.06700    0.65820    0.42410    1.000
    H224     H        0.09300    0.52830    0.43810    1.000
    C237     C        0.13580    0.57100    0.31580    1.000
    C238     C        0.13420    0.64000    0.28450    1.000
    H225     H        0.14350    0.73260    0.28300    1.000
    C239     C        0.11790    0.57000    0.25350    1.000
    H226     H        0.11540    0.62000    0.23180    1.000
    C240     C        0.10610    0.43900    0.25300    1.000
    C241     C        0.10790    0.37200    0.28610    1.000
    H227     H        0.09950    0.27880    0.28730    1.000
    C242     C        0.12110    0.43400    0.31640    1.000
    H228     H        0.12050    0.38560    0.33840    1.000
    C243     C        0.09410    0.36400    0.21920    1.000
    C244     C        0.28660    0.80140    0.36760    1.000
    C245     C        0.31100    0.79280    0.39940    1.000
    C246     C        0.34710    0.71100    0.39710    1.000
    H229     H        0.36440    0.70650    0.41780    1.000
    C247     C        0.35940    0.63900    0.36930    1.000
    C248     C        0.33380    0.64700    0.33750    1.000
    C249     C        0.29880    0.71950    0.33670    1.000
    H230     H        0.28150    0.71860    0.31590    1.000
    C250     C        0.32120    0.59400    0.27770    1.000
    H231     H        0.33210    0.54080    0.25740    1.000
    H232     H        0.32060    0.69100    0.27150    1.000
    H233     H        0.29260    0.56270    0.28350    1.000
    C251     C        0.39990    0.55800    0.36930    1.000
    C252     C        0.43600    0.60700    0.38590    1.000
    H234     H        0.43480    0.69250    0.39820    1.000
    C253     C        0.47360    0.53600    0.38520    1.000
    H235     H        0.49730    0.57090    0.39790    1.000
    C254     C        0.47770    0.40900    0.36530    1.000
    C255     C        0.44230    0.36300    0.35060    1.000
    H236     H        0.44310    0.27690    0.33880    1.000
    C256     C        0.40420    0.43200    0.35120    1.000
    H237     H        0.38050    0.39460    0.33920    1.000
    C257     C        0.52100    0.34700    0.36320    1.000
    O50      O        0.16220    0.51500    0.16890    1.000
    C258     C        0.20080    0.52300    0.16580    1.000
    C259     C        0.21500    0.55300    0.12810    1.000
    H238     H        0.24560    0.55840    0.12730    1.000
    H239     H        0.20260    0.64020    0.12030    1.000
    H240     H        0.20500    0.47960    0.11220    1.000
    N9       N        0.22910    0.50900    0.19090    1.000
    C260     C        0.21600    0.48400    0.22810    1.000
    H241     H        0.24180    0.47630    0.24310    1.000
    H242     H        0.20040    0.39840    0.22940    1.000
    H243     H        0.19900    0.55980    0.23660    1.000
    C261     C        0.27440    0.52400    0.18420    1.000
    H244     H        0.29000    0.50980    0.20660    1.000
    H245     H        0.28020    0.61620    0.17510    1.000
    H246     H        0.28350    0.45620    0.16640    1.000
    C262     C        0.18340    0.60300    0.15380    1.000
    C263     C        0.20300    0.55000    0.12000    1.000
    H247     H        0.22000    0.62290    0.10880    1.000
    H248     H        0.18130    0.51950    0.10340    1.000
    H249     H        0.22190    0.47270    0.12580    1.000
    N10      N        0.19050    0.73100    0.16160    1.000
    C264     C        0.17200    0.80100    0.19200    1.000
    H250     H        0.18140    0.89630    0.19280    1.000
    H251     H        0.18010    0.75490    0.21450    1.000
    H252     H        0.14080    0.79930    0.19010    1.000
    C265     C        0.22400    0.80900    0.14300    1.000
    H253     H        0.22420    0.90260    0.15290    1.000
    H254     H        0.21810    0.81130    0.11770    1.000
    H255     H        0.25120    0.76530    0.14780    1.000
    C266     C        0.20070    0.13180    0.93380    1.000
    H256     H        0.21710    0.04930    0.92720    1.000
    H257     H        0.17420    0.10020    0.94530    1.000
    Zn11     Zn       0.43133    0.85330    0.67820    1.000
    O51      O        0.20210    0.46070    0.03410    1.000
    C267     C        0.29800    0.12860    0.93870    1.000
    H258     H        0.28200    0.04790    0.93010    1.000
    H259     H        0.32280    0.09480    0.95230    1.000
    Zn12     Zn       0.39185    0.55560    0.64326    1.000
    O52      O        0.36070    0.78340    0.12590    1.000
    C268     C        0.25400    0.11790    0.86530    1.000
    H260     H        0.25590    0.07720    0.84110    1.000
    H261     H        0.25240    0.04150    0.88270    1.000
    O53      O        0.39130    0.58740    0.14090    1.000
    O54      O        0.40170    0.44170    0.88460    1.000
    O55      O        0.40920    0.75640    0.72040    1.000
    O56      O        0.41240    0.55740    0.69280    1.000
    O57      O        0.15220    0.42610    0.80780    1.000
    O58      O        0.98070    0.76130    0.84220    1.000
    O59      O        0.94770    0.60640    0.87630    1.000
    C269     C        0.22560    0.21090    0.96110    1.000
    C270     C        0.27020    0.20930    0.96380    1.000
    C271     C        0.28880    0.28800    0.98980    1.000
    H262     H        0.31880    0.28540    0.99120    1.000
    C272     C        0.26810    0.37060    0.01410    1.000
    C273     C        0.22410    0.37890    0.01020    1.000
    C274     C        0.20450    0.30280    0.98350    1.000
    H263     H        0.17490    0.31390    0.98030    1.000
    C275     C        0.15610    0.46400    0.03320    1.000
    H264     H        0.14570    0.52650    0.05170    1.000
    H265     H        0.14510    0.37180    0.03770    1.000
    H266     H        0.14660    0.49560    0.00960    1.000
    C276     C        0.29050    0.44500    0.04410    1.000
    C277     C        0.32320    0.38000    0.06270    1.000
    H267     H        0.33020    0.28810    0.05730    1.000
    C278     C        0.34570    0.44900    0.08920    1.000
    H268     H        0.36620    0.40110    0.10280    1.000
    C279     C        0.33880    0.58400    0.09580    1.000
    C280     C        0.30780    0.65200    0.07710    1.000
    H269     H        0.30340    0.74670    0.08100    1.000
    C281     C        0.28210    0.58100    0.05170    1.000
    H270     H        0.25950    0.62660    0.04010    1.000
    C282     C        0.36620    0.66300    0.12150    1.000
    C283     C        0.31330    0.20840    0.90670    1.000
    C284     C        0.29410    0.19670    0.87240    1.000
    C285     C        0.31060    0.27830    0.84420    1.000
    H271     H        0.29560    0.28060    0.82220    1.000
    C286     C        0.34610    0.35270    0.84700    1.000
    C287     C        0.36460    0.36690    0.88270    1.000
    C288     C        0.34900    0.29040    0.91070    1.000
    H272     H        0.36290    0.29360    0.93320    1.000
    C289     C        0.42500    0.43700    0.91880    1.000
    H273     H        0.45050    0.49290    0.91700    1.000
    H274     H        0.43300    0.34180    0.92410    1.000
    H275     H        0.40700    0.47170    0.93810    1.000
    C290     C        0.36420    0.42900    0.81580    1.000
    C291     C        0.36580    0.36000    0.78450    1.000
    H276     H        0.35650    0.26740    0.78300    1.000
    C292     C        0.38210    0.43000    0.75350    1.000
    H277     H        0.38460    0.38000    0.73180    1.000
    C293     C        0.39390    0.56100    0.75300    1.000
    C294     C        0.39210    0.62800    0.78610    1.000
    H278     H        0.40050    0.72120    0.78730    1.000
    C295     C        0.37890    0.56600    0.81640    1.000
    H279     H        0.37950    0.61440    0.83840    1.000
    C296     C        0.40590    0.63600    0.71920    1.000
    C297     C        0.21340    0.19860    0.86760    1.000
    C298     C        0.18900    0.20720    0.89940    1.000
    C299     C        0.15290    0.28900    0.89710    1.000
    H280     H        0.13560    0.29350    0.91780    1.000
    C300     C        0.14060    0.36100    0.86930    1.000
    C301     C        0.16620    0.35300    0.83750    1.000
    C302     C        0.20120    0.28050    0.83670    1.000
    H281     H        0.21850    0.28140    0.81590    1.000
    C303     C        0.17880    0.40600    0.77770    1.000
    H282     H        0.16790    0.45920    0.75740    1.000
    H283     H        0.17940    0.30900    0.77150    1.000
    H284     H        0.20740    0.43730    0.78350    1.000
    C304     C        0.10010    0.44200    0.86930    1.000
    C305     C        0.06400    0.39300    0.88590    1.000
    H285     H        0.06520    0.30750    0.89820    1.000
    C306     C        0.02640    0.46400    0.88520    1.000
    H286     H        0.00270    0.42910    0.89790    1.000
    C307     C        0.02230    0.59100    0.86530    1.000
    C308     C        0.05770    0.63700    0.85060    1.000
    H287     H        0.05690    0.72310    0.83880    1.000
    C309     C        0.09580    0.56800    0.85120    1.000
    H288     H        0.11950    0.60540    0.83920    1.000
    C310     C        0.97900    0.65300    0.86320    1.000
    O60      O        0.33780    0.48500    0.66890    1.000
    C311     C        0.29920    0.47700    0.66580    1.000
    C312     C        0.28500    0.44700    0.62810    1.000
    H289     H        0.25440    0.44160    0.62730    1.000
    H290     H        0.29740    0.35980    0.62030    1.000
    H291     H        0.29500    0.52040    0.61220    1.000
    N11      N        0.27090    0.49100    0.69090    1.000
    C313     C        0.28400    0.51600    0.72810    1.000
    H292     H        0.25820    0.52370    0.74310    1.000
    H293     H        0.29960    0.60160    0.72940    1.000
    H294     H        0.30100    0.44020    0.73660    1.000
    C314     C        0.22560    0.47600    0.68420    1.000
    H295     H        0.21000    0.49020    0.70660    1.000
    H296     H        0.21980    0.38380    0.67510    1.000
    H297     H        0.21650    0.54380    0.66640    1.000
    C315     C        0.31660    0.39700    0.65380    1.000
    C316     C        0.29700    0.45000    0.62000    1.000
    H298     H        0.28000    0.37710    0.60880    1.000
    H299     H        0.31870    0.48050    0.60340    1.000
    H300     H        0.27810    0.52730    0.62580    1.000
    N12      N        0.30950    0.26900    0.66160    1.000
    C317     C        0.32800    0.19900    0.69200    1.000
    H301     H        0.31860    0.10370    0.69280    1.000
    H302     H        0.31990    0.24510    0.71450    1.000
    H303     H        0.35920    0.20070    0.69010    1.000
    C318     C        0.27600    0.19100    0.64300    1.000
    H304     H        0.27580    0.09740    0.65290    1.000
    H305     H        0.28190    0.18870    0.61770    1.000
    H306     H        0.24880    0.23470    0.64780    1.000
    C319     C        0.70070    0.36820    0.06620    1.000
    H307     H        0.71710    0.45070    0.07280    1.000
    H308     H        0.67420    0.39980    0.05470    1.000
    Zn13     Zn       0.93133    0.64670    0.32180    1.000
    O61      O        0.70210    0.03930    0.96590    1.000
    C320     C        0.79800    0.37140    0.06130    1.000
    H309     H        0.78200    0.45210    0.06990    1.000
    H310     H        0.82280    0.40520    0.04770    1.000
    Zn14     Zn       0.89185    0.94440    0.35674    1.000
    O62      O        0.86070    0.71660    0.87410    1.000
    C321     C        0.75400    0.38210    0.13470    1.000
    H311     H        0.75590    0.42280    0.15890    1.000
    H312     H        0.75240    0.45850    0.11730    1.000
    O63      O        0.89130    0.91260    0.85910    1.000
    O64      O        0.90170    0.05830    0.11540    1.000
    O65      O        0.90920    0.74360    0.27960    1.000
    O66      O        0.91240    0.94260    0.30720    1.000
    O67      O        0.65220    0.07390    0.19220    1.000
    O68      O        0.48070    0.73870    0.15780    1.000
    O69      O        0.44770    0.89360    0.12370    1.000
    C322     C        0.72560    0.28910    0.03890    1.000
    C323     C        0.77020    0.29070    0.03620    1.000
    C324     C        0.78880    0.21200    0.01020    1.000
    H313     H        0.81880    0.21460    0.00880    1.000
    C325     C        0.76810    0.12940    0.98590    1.000
    C326     C        0.72410    0.12110    0.98980    1.000
    C327     C        0.70450    0.19720    0.01650    1.000
    H314     H        0.67490    0.18610    0.01970    1.000
    C328     C        0.65610    0.03600    0.96680    1.000
    H315     H        0.64570    0.97350    0.94830    1.000
    H316     H        0.64510    0.12820    0.96230    1.000
    H317     H        0.64660    0.00440    0.99040    1.000
    C329     C        0.79050    0.05500    0.95590    1.000
    C330     C        0.82320    0.12000    0.93730    1.000
    H318     H        0.83020    0.21190    0.94270    1.000
    C331     C        0.84570    0.05100    0.91080    1.000
    H319     H        0.86620    0.09890    0.89720    1.000
    C332     C        0.83880    0.91600    0.90420    1.000
    C333     C        0.80780    0.84800    0.92290    1.000
    H320     H        0.80340    0.75330    0.91900    1.000
    C334     C        0.78210    0.91900    0.94830    1.000
    H321     H        0.75950    0.87340    0.95990    1.000
    C335     C        0.86620    0.83700    0.87850    1.000
    C336     C        0.81330    0.29160    0.09330    1.000
    C337     C        0.79410    0.30330    0.12760    1.000
    C338     C        0.81060    0.22170    0.15580    1.000
    H322     H        0.79560    0.21940    0.17780    1.000
    C339     C        0.84610    0.14730    0.15300    1.000
    C340     C        0.86460    0.13310    0.11730    1.000
    C341     C        0.84900    0.20960    0.08930    1.000
    H323     H        0.86290    0.20640    0.06680    1.000
    C342     C        0.92500    0.06300    0.08120    1.000
    H324     H        0.95050    0.00710    0.08300    1.000
    H325     H        0.93300    0.15820    0.07590    1.000
    H326     H        0.90700    0.02830    0.06190    1.000
    C343     C        0.86420    0.07100    0.18420    1.000
    C344     C        0.86580    0.14000    0.21550    1.000
    H327     H        0.85650    0.23260    0.21700    1.000
    C345     C        0.88210    0.07000    0.24650    1.000
    H328     H        0.88460    0.12000    0.26820    1.000
    C346     C        0.89390    0.93900    0.24700    1.000
    C347     C        0.89210    0.87200    0.21390    1.000
    H329     H        0.90050    0.77880    0.21270    1.000
    C348     C        0.87890    0.93400    0.18360    1.000
    H330     H        0.87950    0.88560    0.16160    1.000
    C349     C        0.90590    0.86400    0.28080    1.000
    C350     C        0.71340    0.30140    0.13240    1.000
    C351     C        0.68900    0.29280    0.10060    1.000
    C352     C        0.65290    0.21100    0.10290    1.000
    H331     H        0.63560    0.20650    0.08220    1.000
    C353     C        0.64060    0.13900    0.13070    1.000
    C354     C        0.66620    0.14700    0.16250    1.000
    C355     C        0.70120    0.21950    0.16330    1.000
    H332     H        0.71850    0.21860    0.18410    1.000
    C356     C        0.67880    0.09400    0.22230    1.000
    H333     H        0.66790    0.04080    0.24260    1.000
    H334     H        0.67940    0.19100    0.22850    1.000
    H335     H        0.70740    0.06270    0.21650    1.000
    C357     C        0.60010    0.05800    0.13070    1.000
    C358     C        0.56400    0.10700    0.11410    1.000
    H336     H        0.56520    0.19250    0.10180    1.000
    C359     C        0.52640    0.03600    0.11480    1.000
    H337     H        0.50270    0.07090    0.10210    1.000
    C360     C        0.52230    0.90900    0.13470    1.000
    C361     C        0.55770    0.86300    0.14940    1.000
    H338     H        0.55690    0.77690    0.16120    1.000
    C362     C        0.59580    0.93200    0.14880    1.000
    H339     H        0.61950    0.89460    0.16080    1.000
    C363     C        0.47900    0.84700    0.13680    1.000
    O70      O        0.83780    0.01500    0.33110    1.000
    C364     C        0.79920    0.02300    0.33420    1.000
    C365     C        0.78500    0.05300    0.37190    1.000
    H340     H        0.75440    0.05840    0.37270    1.000
    H341     H        0.79740    0.14020    0.37970    1.000
    H342     H        0.79500    0.97960    0.38780    1.000
    N13      N        0.77090    0.00900    0.30910    1.000
    C366     C        0.78400    0.98400    0.27190    1.000
    H343     H        0.75820    0.97630    0.25690    1.000
    H344     H        0.79960    0.89840    0.27060    1.000
    H345     H        0.80100    0.05980    0.26340    1.000
    C367     C        0.72560    0.02400    0.31580    1.000
    H346     H        0.71000    0.00980    0.29340    1.000
    H347     H        0.71980    0.11620    0.32490    1.000
    H348     H        0.71650    0.95620    0.33360    1.000
    C368     C        0.81660    0.10300    0.34620    1.000
    C369     C        0.79700    0.05000    0.38000    1.000
    H349     H        0.78000    0.12290    0.39120    1.000
    H350     H        0.81870    0.01950    0.39660    1.000
    H351     H        0.77810    0.97270    0.37420    1.000
    N14      N        0.80950    0.23100    0.33840    1.000
    C370     C        0.82800    0.30100    0.30800    1.000
    H352     H        0.81860    0.39630    0.30720    1.000
    H353     H        0.81990    0.25490    0.28550    1.000
    H354     H        0.85920    0.29930    0.30990    1.000
    C371     C        0.77600    0.30900    0.35700    1.000
    H355     H        0.77580    0.40260    0.34710    1.000
    H356     H        0.78190    0.31130    0.38230    1.000
    H357     H        0.74880    0.26530    0.35220    1.000
    C372     C        0.79930    0.63180    0.56620    1.000
    H358     H        0.78290    0.54930    0.57280    1.000
    H359     H        0.82580    0.60020    0.55470    1.000
    Zn15     Zn       0.56867    0.35330    0.82180    1.000
    O71      O        0.79790    0.96070    0.46590    1.000
    C373     C        0.70200    0.62860    0.56130    1.000
    H360     H        0.71800    0.54790    0.56990    1.000
    H361     H        0.67720    0.59480    0.54770    1.000
    Zn16     Zn       0.60815    0.05560    0.85674    1.000
    O72      O        0.63930    0.28340    0.37410    1.000
    C374     C        0.74600    0.61790    0.63470    1.000
    H362     H        0.74410    0.57720    0.65890    1.000
    H363     H        0.74760    0.54150    0.61730    1.000
    O73      O        0.60870    0.08740    0.35910    1.000
    O74      O        0.59830    0.94170    0.61540    1.000
    O75      O        0.59080    0.25640    0.77960    1.000
    O76      O        0.58760    0.05740    0.80720    1.000
    O77      O        0.84780    0.92610    0.69220    1.000
    O78      O        0.01930    0.26130    0.65780    1.000
    O79      O        0.05230    0.10640    0.62370    1.000
    C375     C        0.77440    0.71090    0.53890    1.000
    C376     C        0.72980    0.70930    0.53620    1.000
    C377     C        0.71120    0.78800    0.51020    1.000
    H364     H        0.68120    0.78540    0.50880    1.000
    C378     C        0.73190    0.87060    0.48590    1.000
    C379     C        0.77590    0.87890    0.48980    1.000
    C380     C        0.79550    0.80280    0.51650    1.000
    H365     H        0.82510    0.81390    0.51970    1.000
    C381     C        0.84390    0.96400    0.46680    1.000
    H366     H        0.85430    0.02650    0.44830    1.000
    H367     H        0.85490    0.87180    0.46230    1.000
    H368     H        0.85340    0.99560    0.49040    1.000
    C382     C        0.70950    0.94500    0.45590    1.000
    C383     C        0.67680    0.88000    0.43730    1.000
    H369     H        0.66980    0.78810    0.44270    1.000
    C384     C        0.65430    0.94900    0.41080    1.000
    H370     H        0.63380    0.90110    0.39720    1.000
    C385     C        0.66120    0.08400    0.40420    1.000
    C386     C        0.69220    0.15200    0.42290    1.000
    H371     H        0.69660    0.24670    0.41900    1.000
    C387     C        0.71790    0.08100    0.44830    1.000
    H372     H        0.74050    0.12660    0.45990    1.000
    C388     C        0.63380    0.16300    0.37850    1.000
    C389     C        0.68670    0.70840    0.59330    1.000
    C390     C        0.70590    0.69670    0.62760    1.000
    C391     C        0.68940    0.77830    0.65580    1.000
    H373     H        0.70440    0.78060    0.67780    1.000
    C392     C        0.65390    0.85270    0.65300    1.000
    C393     C        0.63540    0.86690    0.61730    1.000
    C394     C        0.65100    0.79040    0.58930    1.000
    H374     H        0.63710    0.79360    0.56680    1.000
    C395     C        0.57500    0.93700    0.58120    1.000
    H375     H        0.54950    0.99290    0.58300    1.000
    H376     H        0.56700    0.84180    0.57590    1.000
    H377     H        0.59300    0.97170    0.56190    1.000
    C396     C        0.63580    0.92900    0.68420    1.000
    C397     C        0.63420    0.86000    0.71550    1.000
    H378     H        0.64350    0.76740    0.71700    1.000
    C398     C        0.61790    0.93000    0.74650    1.000
    H379     H        0.61540    0.88000    0.76820    1.000
    C399     C        0.60610    0.06100    0.74700    1.000
    C400     C        0.60790    0.12800    0.71390    1.000
    H380     H        0.59950    0.22120    0.71270    1.000
    C401     C        0.62110    0.06600    0.68360    1.000
    H381     H        0.62050    0.11440    0.66160    1.000
    C402     C        0.59410    0.13600    0.78080    1.000
    C403     C        0.78660    0.69860    0.63240    1.000
    C404     C        0.81100    0.70720    0.60060    1.000
    C405     C        0.84710    0.78900    0.60290    1.000
    H382     H        0.86440    0.79350    0.58220    1.000
    C406     C        0.85940    0.86100    0.63070    1.000
    C407     C        0.83380    0.85300    0.66250    1.000
    C408     C        0.79880    0.78050    0.66330    1.000
    H383     H        0.78150    0.78140    0.68410    1.000
    C409     C        0.82120    0.90600    0.72230    1.000
    H384     H        0.83210    0.95920    0.74260    1.000
    H385     H        0.82060    0.80900    0.72850    1.000
    H386     H        0.79260    0.93730    0.71650    1.000
    C410     C        0.89990    0.94200    0.63070    1.000
    C411     C        0.93600    0.89300    0.61410    1.000
    H387     H        0.93480    0.80750    0.60180    1.000
    C412     C        0.97360    0.96400    0.61480    1.000
    H388     H        0.99730    0.92910    0.60210    1.000
    C413     C        0.97770    0.09100    0.63470    1.000
    C414     C        0.94230    0.13700    0.64940    1.000
    H389     H        0.94310    0.22310    0.66120    1.000
    C415     C        0.90420    0.06800    0.64880    1.000
    H390     H        0.88050    0.10540    0.66080    1.000
    C416     C        0.02100    0.15300    0.63680    1.000
    O80      O        0.66220    0.98500    0.83110    1.000
    C417     C        0.70080    0.97700    0.83420    1.000
    C418     C        0.71500    0.94700    0.87190    1.000
    H391     H        0.74560    0.94160    0.87270    1.000
    H392     H        0.70260    0.85980    0.87970    1.000
    H393     H        0.70500    0.02040    0.88780    1.000
    N15      N        0.72910    0.99100    0.80910    1.000
    C419     C        0.71600    0.01600    0.77190    1.000
    H394     H        0.74180    0.02370    0.75690    1.000
    H395     H        0.70040    0.10160    0.77060    1.000
    H396     H        0.69900    0.94020    0.76340    1.000
    C420     C        0.77440    0.97600    0.81580    1.000
    H397     H        0.79000    0.99020    0.79340    1.000
    H398     H        0.78020    0.88380    0.82490    1.000
    H399     H        0.78350    0.04380    0.83360    1.000
    C421     C        0.68340    0.89700    0.84620    1.000
    C422     C        0.70300    0.95000    0.88000    1.000
    H400     H        0.72000    0.87710    0.89120    1.000
    H401     H        0.68130    0.98050    0.89660    1.000
    H402     H        0.72190    0.02730    0.87420    1.000
    N16      N        0.69050    0.76900    0.83840    1.000
    C423     C        0.67200    0.69900    0.80800    1.000
    H403     H        0.68140    0.60370    0.80720    1.000
    H404     H        0.68010    0.74510    0.78550    1.000
    H405     H        0.64080    0.70070    0.80990    1.000
    C424     C        0.72400    0.69100    0.85700    1.000
    H406     H        0.72420    0.59740    0.84710    1.000
    H407     H        0.71810    0.68870    0.88230    1.000
    H408     H        0.75120    0.73470    0.85220    1.000
