# CIF file generated by openbabel 3.1.0, see https://openbabel.org
data_I
_chemical_name_common 'image0'
_cell_length_a 11.248
_cell_length_b 20.8734
_cell_length_c 14.6641
_cell_angle_alpha 90
_cell_angle_beta 105.318
_cell_angle_gamma 90
_space_group_name_H-M_alt 'P 1'
_space_group_name_Hall 'P 1'
loop_
    _symmetry_equiv_pos_as_xyz
    x,y,z
loop_
    _atom_site_label
    _atom_site_type_symbol
    _atom_site_fract_x
    _atom_site_fract_y
    _atom_site_fract_z
    _atom_site_occupancy
    U1       U        0.77722    0.22522    0.55879    1.000
    U2       U        0.87467    0.01483    0.37284    1.000
    U3       U        0.92344    0.41889    0.53633    1.000
    P1       P        0.60186    0.11596    0.38537    1.000
    P2       P        0.20442    0.44694    0.62824    1.000
    P3       P        0.12637    0.94630    0.37640    1.000
    P4       P        0.61711    0.36435    0.42487    1.000
    F1       F        0.86650    0.32695    0.59440    1.000
    O1       O        0.61910    0.16124    0.46830    1.000
    O2       O        0.70600    0.06967    0.38920    1.000
    O3       O        0.58050    0.15786    0.29280    1.000
    O4       O        0.26620    0.48246    0.71700    1.000
    O5       O        0.12690    0.38875    0.64310    1.000
    O6       O        0.10780    0.48780    0.55740    1.000
    O7       O        0.01560    0.96208    0.29140    1.000
    O8       O        0.07900    0.96948    0.46060    1.000
    O9       O        0.16450    0.87749    0.37990    1.000
    O10      O        0.55740    0.36661    0.31520    1.000
    O11      O        0.65510    0.29606    0.44900    1.000
    O12      O        0.72070    0.41297    0.45410    1.000
    C1       C        0.46510    0.06980    0.37660    1.000
    C2       C        0.35680    0.09760    0.38180    1.000
    H1       H        0.35230    0.14290    0.38660    1.000
    C3       C        0.25370    0.06100    0.38040    1.000
    H2       H        0.17980    0.08150    0.38440    1.000
    C4       C        0.25740    0.99480    0.37320    1.000
    C5       C        0.36510    0.96680    0.36870    1.000
    H3       H        0.36980    0.92140    0.36470    1.000
    C6       C        0.46860    0.00400    0.37010    1.000
    H4       H        0.54270    0.98360    0.36640    1.000
    C7       C        0.31920    0.42280    0.57060    1.000
    C8       C        0.28750    0.39210    0.48460    1.000
    H5       H        0.20330    0.38270    0.45580    1.000
    C9       C        0.37680    0.37450    0.43900    1.000
    H6       H        0.35290    0.35350    0.37940    1.000
    C10      C        0.49960    0.38730    0.47990    1.000
    C11      C        0.53220    0.41880    0.56560    1.000
    H7       H        0.61640    0.42860    0.59380    1.000
    C12      C        0.44330    0.43650    0.61160    1.000
    H8       H        0.46720    0.45790    0.67080    1.000
    U4       U        0.72278    0.72522    0.94121    1.000
    U5       U        0.62533    0.51483    0.12716    1.000
    U6       U        0.57656    0.91889    0.96367    1.000
    P5       P        0.89814    0.61596    0.11463    1.000
    P6       P        0.29558    0.94694    0.87176    1.000
    P7       P        0.37363    0.44630    0.12360    1.000
    P8       P        0.88289    0.86435    0.07513    1.000
    F2       F        0.63350    0.82695    0.90560    1.000
    O13      O        0.88090    0.66124    0.03170    1.000
    O14      O        0.79400    0.56967    0.11080    1.000
    O15      O        0.91950    0.65786    0.20720    1.000
    O16      O        0.23380    0.98246    0.78300    1.000
    O17      O        0.37310    0.88875    0.85690    1.000
    O18      O        0.39220    0.98780    0.94260    1.000
    O19      O        0.48440    0.46208    0.20860    1.000
    O20      O        0.42100    0.46948    0.03940    1.000
    O21      O        0.33550    0.37749    0.12010    1.000
    O22      O        0.94260    0.86661    0.18480    1.000
    O23      O        0.84490    0.79606    0.05100    1.000
    O24      O        0.77930    0.91297    0.04590    1.000
    C13      C        0.03490    0.56980    0.12340    1.000
    C14      C        0.14320    0.59760    0.11820    1.000
    H9       H        0.14770    0.64290    0.11340    1.000
    C15      C        0.24630    0.56100    0.11960    1.000
    H10      H        0.32020    0.58150    0.11560    1.000
    C16      C        0.24260    0.49480    0.12680    1.000
    C17      C        0.13490    0.46680    0.13130    1.000
    H11      H        0.13020    0.42140    0.13530    1.000
    C18      C        0.03140    0.50400    0.12990    1.000
    H12      H        0.95730    0.48360    0.13360    1.000
    C19      C        0.18080    0.92280    0.92940    1.000
    C20      C        0.21250    0.89210    0.01540    1.000
    H13      H        0.29670    0.88270    0.04420    1.000
    C21      C        0.12320    0.87450    0.06100    1.000
    H14      H        0.14710    0.85350    0.12060    1.000
    C22      C        0.00040    0.88730    0.02010    1.000
    C23      C        0.96780    0.91880    0.93440    1.000
    H15      H        0.88360    0.92860    0.90620    1.000
    C24      C        0.05670    0.93650    0.88840    1.000
    H16      H        0.03280    0.95790    0.82920    1.000
    U7       U        0.22278    0.77478    0.44121    1.000
    U8       U        0.12533    0.98517    0.62716    1.000
    U9       U        0.07656    0.58111    0.46367    1.000
    P9       P        0.39814    0.88404    0.61463    1.000
    P10      P        0.79558    0.55306    0.37176    1.000
    P11      P        0.87363    0.05370    0.62360    1.000
    P12      P        0.38289    0.63565    0.57513    1.000
    F3       F        0.13350    0.67305    0.40560    1.000
    O25      O        0.38090    0.83876    0.53170    1.000
    O26      O        0.29400    0.93033    0.61080    1.000
    O27      O        0.41950    0.84214    0.70720    1.000
    O28      O        0.73380    0.51754    0.28300    1.000
    O29      O        0.87310    0.61125    0.35690    1.000
    O30      O        0.89220    0.51220    0.44260    1.000
    O31      O        0.98440    0.03792    0.70860    1.000
    O32      O        0.92100    0.03052    0.53940    1.000
    O33      O        0.83550    0.12251    0.62010    1.000
    O34      O        0.44260    0.63339    0.68480    1.000
    O35      O        0.34490    0.70394    0.55100    1.000
    O36      O        0.27930    0.58703    0.54590    1.000
    C25      C        0.53490    0.93020    0.62340    1.000
    C26      C        0.64320    0.90240    0.61820    1.000
    H17      H        0.64770    0.85710    0.61340    1.000
    C27      C        0.74630    0.93900    0.61960    1.000
    H18      H        0.82020    0.91850    0.61560    1.000
    C28      C        0.74260    0.00520    0.62680    1.000
    C29      C        0.63490    0.03320    0.63130    1.000
    H19      H        0.63020    0.07860    0.63530    1.000
    C30      C        0.53140    0.99600    0.62990    1.000
    H20      H        0.45730    0.01640    0.63360    1.000
    C31      C        0.68080    0.57720    0.42940    1.000
    C32      C        0.71250    0.60790    0.51540    1.000
    H21      H        0.79670    0.61730    0.54420    1.000
    C33      C        0.62320    0.62550    0.56100    1.000
    H22      H        0.64710    0.64650    0.62060    1.000
    C34      C        0.50040    0.61270    0.52010    1.000
    C35      C        0.46780    0.58120    0.43440    1.000
    H23      H        0.38360    0.57140    0.40620    1.000
    C36      C        0.55670    0.56350    0.38840    1.000
    H24      H        0.53280    0.54210    0.32920    1.000
    U10      U        0.27722    0.27478    0.05879    1.000
    U11      U        0.37467    0.48517    0.87284    1.000
    U12      U        0.42344    0.08111    0.03633    1.000
    P13      P        0.10186    0.38404    0.88537    1.000
    P14      P        0.70442    0.05306    0.12824    1.000
    P15      P        0.62637    0.55370    0.87640    1.000
    P16      P        0.11711    0.13565    0.92487    1.000
    F4       F        0.36650    0.17305    0.09440    1.000
    O37      O        0.11910    0.33876    0.96830    1.000
    O38      O        0.20600    0.43033    0.88920    1.000
    O39      O        0.08050    0.34214    0.79280    1.000
    O40      O        0.76620    0.01754    0.21700    1.000
    O41      O        0.62690    0.11125    0.14310    1.000
    O42      O        0.60780    0.01220    0.05740    1.000
    O43      O        0.51560    0.53792    0.79140    1.000
    O44      O        0.57900    0.53052    0.96060    1.000
    O45      O        0.66450    0.62251    0.87990    1.000
    O46      O        0.05740    0.13339    0.81520    1.000
    O47      O        0.15510    0.20394    0.94900    1.000
    O48      O        0.22070    0.08703    0.95410    1.000
    C37      C        0.96510    0.43020    0.87660    1.000
    C38      C        0.85680    0.40240    0.88180    1.000
    H25      H        0.85230    0.35710    0.88660    1.000
    C39      C        0.75370    0.43900    0.88040    1.000
    H26      H        0.67980    0.41850    0.88440    1.000
    C40      C        0.75740    0.50520    0.87320    1.000
    C41      C        0.86510    0.53320    0.86870    1.000
    H27      H        0.86980    0.57860    0.86470    1.000
    C42      C        0.96860    0.49600    0.87010    1.000
    H28      H        0.04270    0.51640    0.86640    1.000
    C43      C        0.81920    0.07720    0.07060    1.000
    C44      C        0.78750    0.10790    0.98460    1.000
    H29      H        0.70330    0.11730    0.95580    1.000
    C45      C        0.87680    0.12550    0.93900    1.000
    H30      H        0.85290    0.14650    0.87940    1.000
    C46      C        0.99960    0.11270    0.97990    1.000
    C47      C        0.03220    0.08120    0.06560    1.000
    H31      H        0.11640    0.07140    0.09380    1.000
    C48      C        0.94330    0.06350    0.11160    1.000
    H32      H        0.96720    0.04210    0.17080    1.000
