# CIF file generated by openbabel 3.1.0, see https://openbabel.org
data_I
_chemical_name_common 'image0'
_cell_length_a 30.554
_cell_length_b 16.306
_cell_length_c 21.656
_cell_angle_alpha 90
_cell_angle_beta 134.437
_cell_angle_gamma 90
_space_group_name_H-M_alt 'P 1'
_space_group_name_Hall 'P 1'
loop_
    _symmetry_equiv_pos_as_xyz
    x,y,z
loop_
    _atom_site_label
    _atom_site_type_symbol
    _atom_site_fract_x
    _atom_site_fract_y
    _atom_site_fract_z
    _atom_site_occupancy
    Gd1      Gd       0.82557    0.13065    0.95500    1.000
    Gd2      Gd       0.60982    0.38048    0.69690    1.000
    O1       O        0.74660    0.22990    0.85190    1.000
    O2       O        0.71760    0.34980    0.78640    1.000
    O3       O        0.93230    0.14210    0.04060    1.000
    O4       O        0.01670    0.19900    0.08760    1.000
    O5       O        0.86690    0.98710    0.85980    1.000
    O6       O        0.82050    0.10010    0.84430    1.000
    O7       O        0.85340    0.87400    0.66300    1.000
    O8       O        0.81380    0.93900    0.53800    1.000
    N1       N        0.86170    0.25850    0.93730    1.000
    C1       C        0.82120    0.31850    0.88210    1.000
    C2       C        0.84090    0.38690    0.87180    1.000
    H1       H        0.81260    0.42880    0.83310    1.000
    C3       C        0.90120    0.39530    0.91670    1.000
    H2       H        0.91500    0.44310    0.90950    1.000
    C4       C        0.94170    0.33530    0.97200    1.000
    H3       H        0.98380    0.34110    0.00340    1.000
    C5       C        0.92190    0.26690    0.98230    1.000
    C6       C        0.75800    0.29810    0.83760    1.000
    C7       C        0.96030    0.19900    0.04100    1.000
    N2       N        0.83110    0.00570    0.70880    1.000
    C8       C        0.81640    0.06540    0.73530    1.000
    C9       C        0.78190    0.13050    0.68300    1.000
    H4       H        0.77160    0.17230    0.70160    1.000
    C10      C        0.76230    0.13580    0.60420    1.000
    H5       H        0.73820    0.18130    0.56760    1.000
    C11      C        0.77700    0.07610    0.57760    1.000
    H6       H        0.76330    0.07980    0.52250    1.000
    C12      C        0.81150    0.01100    0.62990    1.000
    C13      C        0.83600    0.05000    0.81800    1.000
    C14      C        0.82800    0.93900    0.61000    1.000
    Gd3      Gd       0.32557    0.63065    0.95500    1.000
    Gd4      Gd       0.10982    0.88048    0.69690    1.000
    O9       O        0.24660    0.72990    0.85190    1.000
    O10      O        0.21760    0.84980    0.78640    1.000
    O11      O        0.43230    0.64210    0.04060    1.000
    O12      O        0.51670    0.69900    0.08760    1.000
    O13      O        0.36690    0.48710    0.85980    1.000
    O14      O        0.32050    0.60010    0.84430    1.000
    O15      O        0.35340    0.37400    0.66300    1.000
    O16      O        0.31380    0.43900    0.53800    1.000
    N3       N        0.36170    0.75850    0.93730    1.000
    C15      C        0.32120    0.81850    0.88210    1.000
    C16      C        0.34090    0.88690    0.87180    1.000
    H7       H        0.31260    0.92880    0.83310    1.000
    C17      C        0.40120    0.89530    0.91670    1.000
    H8       H        0.41500    0.94310    0.90950    1.000
    C18      C        0.44170    0.83530    0.97200    1.000
    H9       H        0.48380    0.84110    0.00340    1.000
    C19      C        0.42190    0.76690    0.98230    1.000
    C20      C        0.25800    0.79810    0.83760    1.000
    C21      C        0.46030    0.69900    0.04100    1.000
    N4       N        0.33110    0.50570    0.70880    1.000
    C22      C        0.31640    0.56540    0.73530    1.000
    C23      C        0.28190    0.63050    0.68300    1.000
    H10      H        0.27160    0.67230    0.70160    1.000
    C24      C        0.26230    0.63580    0.60420    1.000
    H11      H        0.23820    0.68130    0.56760    1.000
    C25      C        0.27700    0.57610    0.57760    1.000
    H12      H        0.26330    0.57980    0.52250    1.000
    C26      C        0.31150    0.51100    0.62990    1.000
    C27      C        0.33600    0.55000    0.81800    1.000
    C28      C        0.32800    0.43900    0.61000    1.000
    Gd5      Gd       0.17443    0.13065    0.54500    1.000
    Gd6      Gd       0.39018    0.38048    0.80310    1.000
    O17      O        0.25340    0.22990    0.64810    1.000
    O18      O        0.28240    0.34980    0.71360    1.000
    O19      O        0.06770    0.14210    0.45940    1.000
    O20      O        0.98330    0.19900    0.41240    1.000
    O21      O        0.13310    0.98710    0.64020    1.000
    O22      O        0.17950    0.10010    0.65570    1.000
    O23      O        0.14660    0.87400    0.83700    1.000
    O24      O        0.18620    0.93900    0.96200    1.000
    N5       N        0.13830    0.25850    0.56270    1.000
    C29      C        0.17880    0.31850    0.61790    1.000
    C30      C        0.15910    0.38690    0.62820    1.000
    H13      H        0.18740    0.42880    0.66690    1.000
    C31      C        0.09880    0.39530    0.58330    1.000
    H14      H        0.08500    0.44310    0.59050    1.000
    C32      C        0.05830    0.33530    0.52800    1.000
    H15      H        0.01620    0.34110    0.49660    1.000
    C33      C        0.07810    0.26690    0.51770    1.000
    C34      C        0.24200    0.29810    0.66240    1.000
    C35      C        0.03970    0.19900    0.45900    1.000
    N6       N        0.16890    0.00570    0.79120    1.000
    C36      C        0.18360    0.06540    0.76470    1.000
    C37      C        0.21810    0.13050    0.81700    1.000
    H16      H        0.22840    0.17230    0.79840    1.000
    C38      C        0.23770    0.13580    0.89580    1.000
    H17      H        0.26180    0.18130    0.93240    1.000
    C39      C        0.22300    0.07610    0.92240    1.000
    H18      H        0.23670    0.07980    0.97750    1.000
    C40      C        0.18850    0.01100    0.87010    1.000
    C41      C        0.16400    0.05000    0.68200    1.000
    C42      C        0.17200    0.93900    0.89000    1.000
    Gd7      Gd       0.67443    0.63065    0.54500    1.000
    Gd8      Gd       0.89018    0.88048    0.80310    1.000
    O25      O        0.75340    0.72990    0.64810    1.000
    O26      O        0.78240    0.84980    0.71360    1.000
    O27      O        0.56770    0.64210    0.45940    1.000
    O28      O        0.48330    0.69900    0.41240    1.000
    O29      O        0.63310    0.48710    0.64020    1.000
    O30      O        0.67950    0.60010    0.65570    1.000
    O31      O        0.64660    0.37400    0.83700    1.000
    O32      O        0.68620    0.43900    0.96200    1.000
    N7       N        0.63830    0.75850    0.56270    1.000
    C43      C        0.67880    0.81850    0.61790    1.000
    C44      C        0.65910    0.88690    0.62820    1.000
    H19      H        0.68740    0.92880    0.66690    1.000
    C45      C        0.59880    0.89530    0.58330    1.000
    H20      H        0.58500    0.94310    0.59050    1.000
    C46      C        0.55830    0.83530    0.52800    1.000
    H21      H        0.51620    0.84110    0.49660    1.000
    C47      C        0.57810    0.76690    0.51770    1.000
    C48      C        0.74200    0.79810    0.66240    1.000
    C49      C        0.53970    0.69900    0.45900    1.000
    N8       N        0.66890    0.50570    0.79120    1.000
    C50      C        0.68360    0.56540    0.76470    1.000
    C51      C        0.71810    0.63050    0.81700    1.000
    H22      H        0.72840    0.67230    0.79840    1.000
    C52      C        0.73770    0.63580    0.89580    1.000
    H23      H        0.76180    0.68130    0.93240    1.000
    C53      C        0.72300    0.57610    0.92240    1.000
    H24      H        0.73670    0.57980    0.97750    1.000
    C54      C        0.68850    0.51100    0.87010    1.000
    C55      C        0.66400    0.55000    0.68200    1.000
    C56      C        0.67200    0.43900    0.89000    1.000
    Gd9      Gd       0.17443    0.86935    0.04500    1.000
    Gd10     Gd       0.39018    0.61952    0.30310    1.000
    O33      O        0.25340    0.77010    0.14810    1.000
    O34      O        0.28240    0.65020    0.21360    1.000
    O35      O        0.06770    0.85790    0.95940    1.000
    O36      O        0.98330    0.80100    0.91240    1.000
    O37      O        0.13310    0.01290    0.14020    1.000
    O38      O        0.17950    0.89990    0.15570    1.000
    O39      O        0.14660    0.12600    0.33700    1.000
    O40      O        0.18620    0.06100    0.46200    1.000
    N9       N        0.13830    0.74150    0.06270    1.000
    C57      C        0.17880    0.68150    0.11790    1.000
    C58      C        0.15910    0.61310    0.12820    1.000
    H25      H        0.18740    0.57120    0.16690    1.000
    C59      C        0.09880    0.60470    0.08330    1.000
    H26      H        0.08500    0.55690    0.09050    1.000
    C60      C        0.05830    0.66470    0.02800    1.000
    H27      H        0.01620    0.65890    0.99660    1.000
    C61      C        0.07810    0.73310    0.01770    1.000
    C62      C        0.24200    0.70190    0.16240    1.000
    C63      C        0.03970    0.80100    0.95900    1.000
    N10      N        0.16890    0.99430    0.29120    1.000
    C64      C        0.18360    0.93460    0.26470    1.000
    C65      C        0.21810    0.86950    0.31700    1.000
    H28      H        0.22840    0.82770    0.29840    1.000
    C66      C        0.23770    0.86420    0.39580    1.000
    H29      H        0.26180    0.81870    0.43240    1.000
    C67      C        0.22300    0.92390    0.42240    1.000
    H30      H        0.23670    0.92020    0.47750    1.000
    C68      C        0.18850    0.98900    0.37010    1.000
    C69      C        0.16400    0.95000    0.18200    1.000
    C70      C        0.17200    0.06100    0.39000    1.000
    Gd11     Gd       0.67443    0.36935    0.04500    1.000
    Gd12     Gd       0.89018    0.11952    0.30310    1.000
    O41      O        0.75340    0.27010    0.14810    1.000
    O42      O        0.78240    0.15020    0.21360    1.000
    O43      O        0.56770    0.35790    0.95940    1.000
    O44      O        0.48330    0.30100    0.91240    1.000
    O45      O        0.63310    0.51290    0.14020    1.000
    O46      O        0.67950    0.39990    0.15570    1.000
    O47      O        0.64660    0.62600    0.33700    1.000
    O48      O        0.68620    0.56100    0.46200    1.000
    N11      N        0.63830    0.24150    0.06270    1.000
    C71      C        0.67880    0.18150    0.11790    1.000
    C72      C        0.65910    0.11310    0.12820    1.000
    H31      H        0.68740    0.07120    0.16690    1.000
    C73      C        0.59880    0.10470    0.08330    1.000
    H32      H        0.58500    0.05690    0.09050    1.000
    C74      C        0.55830    0.16470    0.02800    1.000
    H33      H        0.51620    0.15890    0.99660    1.000
    C75      C        0.57810    0.23310    0.01770    1.000
    C76      C        0.74200    0.20190    0.16240    1.000
    C77      C        0.53970    0.30100    0.95900    1.000
    N12      N        0.66890    0.49430    0.29120    1.000
    C78      C        0.68360    0.43460    0.26470    1.000
    C79      C        0.71810    0.36950    0.31700    1.000
    H34      H        0.72840    0.32770    0.29840    1.000
    C80      C        0.73770    0.36420    0.39580    1.000
    H35      H        0.76180    0.31870    0.43240    1.000
    C81      C        0.72300    0.42390    0.42240    1.000
    H36      H        0.73670    0.42020    0.47750    1.000
    C82      C        0.68850    0.48900    0.37010    1.000
    C83      C        0.66400    0.45000    0.18200    1.000
    C84      C        0.67200    0.56100    0.39000    1.000
    Gd13     Gd       0.82557    0.86935    0.45500    1.000
    Gd14     Gd       0.60982    0.61952    0.19690    1.000
    O49      O        0.74660    0.77010    0.35190    1.000
    O50      O        0.71760    0.65020    0.28640    1.000
    O51      O        0.93230    0.85790    0.54060    1.000
    O52      O        0.01670    0.80100    0.58760    1.000
    O53      O        0.86690    0.01290    0.35980    1.000
    O54      O        0.82050    0.89990    0.34430    1.000
    O55      O        0.85340    0.12600    0.16300    1.000
    O56      O        0.81380    0.06100    0.03800    1.000
    N13      N        0.86170    0.74150    0.43730    1.000
    C85      C        0.82120    0.68150    0.38210    1.000
    C86      C        0.84090    0.61310    0.37180    1.000
    H37      H        0.81260    0.57120    0.33310    1.000
    C87      C        0.90120    0.60470    0.41670    1.000
    H38      H        0.91500    0.55690    0.40950    1.000
    C88      C        0.94170    0.66470    0.47200    1.000
    H39      H        0.98380    0.65890    0.50340    1.000
    C89      C        0.92190    0.73310    0.48230    1.000
    C90      C        0.75800    0.70190    0.33760    1.000
    C91      C        0.96030    0.80100    0.54100    1.000
    N14      N        0.83110    0.99430    0.20880    1.000
    C92      C        0.81640    0.93460    0.23530    1.000
    C93      C        0.78190    0.86950    0.18300    1.000
    H40      H        0.77160    0.82770    0.20160    1.000
    C94      C        0.76230    0.86420    0.10420    1.000
    H41      H        0.73820    0.81870    0.06760    1.000
    C95      C        0.77700    0.92390    0.07760    1.000
    H42      H        0.76330    0.92020    0.02250    1.000
    C96      C        0.81150    0.98900    0.12990    1.000
    C97      C        0.83600    0.95000    0.31800    1.000
    C98      C        0.82800    0.06100    0.11000    1.000
    Gd15     Gd       0.32557    0.36935    0.45500    1.000
    Gd16     Gd       0.10982    0.11952    0.19690    1.000
    O57      O        0.24660    0.27010    0.35190    1.000
    O58      O        0.21760    0.15020    0.28640    1.000
    O59      O        0.43230    0.35790    0.54060    1.000
    O60      O        0.51670    0.30100    0.58760    1.000
    O61      O        0.36690    0.51290    0.35980    1.000
    O62      O        0.32050    0.39990    0.34430    1.000
    O63      O        0.35340    0.62600    0.16300    1.000
    O64      O        0.31380    0.56100    0.03800    1.000
    N15      N        0.36170    0.24150    0.43730    1.000
    C99      C        0.32120    0.18150    0.38210    1.000
    C100     C        0.34090    0.11310    0.37180    1.000
    H43      H        0.31260    0.07120    0.33310    1.000
    C101     C        0.40120    0.10470    0.41670    1.000
    H44      H        0.41500    0.05690    0.40950    1.000
    C102     C        0.44170    0.16470    0.47200    1.000
    H45      H        0.48380    0.15890    0.50340    1.000
    C103     C        0.42190    0.23310    0.48230    1.000
    C104     C        0.25800    0.20190    0.33760    1.000
    C105     C        0.46030    0.30100    0.54100    1.000
    N16      N        0.33110    0.49430    0.20880    1.000
    C106     C        0.31640    0.43460    0.23530    1.000
    C107     C        0.28190    0.36950    0.18300    1.000
    H46      H        0.27160    0.32770    0.20160    1.000
    C108     C        0.26230    0.36420    0.10420    1.000
    H47      H        0.23820    0.31870    0.06760    1.000
    C109     C        0.27700    0.42390    0.07760    1.000
    H48      H        0.26330    0.42020    0.02250    1.000
    C110     C        0.31150    0.48900    0.12990    1.000
    C111     C        0.33600    0.45000    0.31800    1.000
    C112     C        0.32800    0.56100    0.11000    1.000
