# CIF file generated by openbabel 3.1.0, see https://openbabel.org
data_I
_chemical_name_common 'image0'
_cell_length_a 24.673
_cell_length_b 24.911
_cell_length_c 9.3725
_cell_angle_alpha 90
_cell_angle_beta 90
_cell_angle_gamma 90
_space_group_name_H-M_alt 'P 1'
_space_group_name_Hall 'P 1'
loop_
    _symmetry_equiv_pos_as_xyz
    x,y,z
loop_
    _atom_site_label
    _atom_site_type_symbol
    _atom_site_fract_x
    _atom_site_fract_y
    _atom_site_fract_z
    _atom_site_occupancy
    Zn1      Zn       0.79174    0.80232    0.88880    1.000
    Zn2      Zn       0.50932    0.06104    0.63272    1.000
    O1       O        0.58390    0.04210    0.60410    1.000
    O2       O        0.51780    0.11920    0.50130    1.000
    O3       O        0.75030    0.86150    0.79400    1.000
    O4       O        0.68160    0.84880    0.94860    1.000
    O5       O        0.30940    0.25100    0.30670    1.000
    O6       O        0.36990    0.28520    0.16940    1.000
    N1       N        0.49410    0.99680    0.74240    1.000
    N2       N        0.43220    0.07240    0.65500    1.000
    C1       C        0.40390    0.10880    0.59150    1.000
    H1       H        0.36700    0.10990    0.61110    1.000
    C2       C        0.42400    0.14670    0.49630    1.000
    C3       C        0.38620    0.18150    0.43010    1.000
    H2       H        0.34970    0.17810    0.45310    1.000
    C4       C        0.40150    0.22010    0.33290    1.000
    C5       C        0.45530    0.22350    0.29180    1.000
    H3       H        0.46580    0.24830    0.22290    1.000
    C6       C        0.49260    0.19070    0.35210    1.000
    H4       H        0.52860    0.19490    0.32460    1.000
    C7       C        0.48060    0.15050    0.45440    1.000
    C8       C        0.35690    0.25320    0.26720    1.000
    C9       C        0.52970    0.96330    0.78440    1.000
    H5       H        0.51740    0.93580    0.84320    1.000
    C10      C        0.58570    0.96280    0.75210    1.000
    C11      C        0.61930    0.92210    0.80590    1.000
    H6       H        0.60380    0.89690    0.86670    1.000
    C12      C        0.67270    0.91690    0.77550    1.000
    C13      C        0.69630    0.95440    0.68740    1.000
    H7       H        0.73300    0.95110    0.66610    1.000
    C14      C        0.66690    0.99790    0.62760    1.000
    C15      C        0.61020    0.00180    0.66150    1.000
    C16      C        0.70400    0.87270    0.84550    1.000
    C17      C        0.40820    0.03870    0.76700    1.000
    H8       H        0.41970    0.05310    0.85950    1.000
    C18      C        0.32830    0.99560    0.89610    1.000
    H9       H        0.34020    0.01050    0.98640    1.000
    H10      H        0.28930    0.99090    0.89870    1.000
    C19      C        0.35730    0.94150    0.86520    1.000
    H11      H        0.34740    0.92940    0.77030    1.000
    H12      H        0.34460    0.91480    0.93280    1.000
    C20      C        0.43510    0.98270    0.74770    1.000
    H13      H        0.42370    0.96650    0.65730    1.000
    C21      C        0.34510    0.03250    0.77010    1.000
    H14      H        0.32840    0.06750    0.78110    1.000
    H15      H        0.33270    0.01710    0.68080    1.000
    C22      C        0.42010    0.94530    0.87500    1.000
    H16      H        0.43680    0.91030    0.86460    1.000
    H17      H        0.43130    0.96090    0.96520    1.000
    C23      C        0.36280    0.96540    0.94190    1.000
    H18      H        0.34870    0.93350    0.98830    1.000
    H19      H        0.36950    0.99290    0.01300    1.000
    C24      C        0.44210    0.00700    0.82510    1.000
    H20      H        0.45980    0.02300    0.90660    1.000
    C25      C        0.40080    0.02070    0.70750    1.000
    H21      H        0.41000    0.98890    0.65500    1.000
    C26      C        0.32470    0.98540    0.82450    1.000
    H22      H        0.28770    0.98930    0.85780    1.000
    H23      H        0.32550    0.96250    0.74070    1.000
    C27      C        0.35220    0.03980    0.79800    1.000
    H24      H        0.36370    0.05660    0.88650    1.000
    H25      H        0.32890    0.06420    0.74580    1.000
    C28      C        0.41420    0.95280    0.85400    1.000
    H26      H        0.43810    0.92930    0.90780    1.000
    H27      H        0.40460    0.93530    0.76550    1.000
    Zn3      Zn       0.70826    0.69768    0.88880    1.000
    Zn4      Zn       0.99068    0.43896    0.63272    1.000
    O7       O        0.91610    0.45790    0.60410    1.000
    O8       O        0.98220    0.38080    0.50130    1.000
    O9       O        0.74970    0.63850    0.79400    1.000
    O10      O        0.81840    0.65120    0.94860    1.000
    O11      O        0.19060    0.24900    0.30670    1.000
    O12      O        0.13010    0.21480    0.16940    1.000
    N3       N        0.00590    0.50320    0.74240    1.000
    N4       N        0.06780    0.42760    0.65500    1.000
    C29      C        0.09610    0.39120    0.59150    1.000
    H28      H        0.13300    0.39010    0.61110    1.000
    C30      C        0.07600    0.35330    0.49630    1.000
    C31      C        0.11380    0.31850    0.43010    1.000
    H29      H        0.15030    0.32190    0.45310    1.000
    C32      C        0.09850    0.27990    0.33290    1.000
    C33      C        0.04470    0.27650    0.29180    1.000
    H30      H        0.03420    0.25170    0.22290    1.000
    C34      C        0.00740    0.30930    0.35210    1.000
    H31      H        0.97140    0.30510    0.32460    1.000
    C35      C        0.01940    0.34950    0.45440    1.000
    C36      C        0.14310    0.24680    0.26720    1.000
    C37      C        0.97030    0.53670    0.78440    1.000
    H32      H        0.98260    0.56420    0.84320    1.000
    C38      C        0.91430    0.53720    0.75210    1.000
    C39      C        0.88070    0.57790    0.80590    1.000
    H33      H        0.89620    0.60310    0.86670    1.000
    C40      C        0.82730    0.58310    0.77550    1.000
    C41      C        0.80370    0.54560    0.68740    1.000
    H34      H        0.76700    0.54890    0.66610    1.000
    C42      C        0.83310    0.50210    0.62760    1.000
    C43      C        0.88980    0.49820    0.66150    1.000
    C44      C        0.79600    0.62730    0.84550    1.000
    C45      C        0.09180    0.46130    0.76700    1.000
    H35      H        0.08030    0.44690    0.85950    1.000
    C46      C        0.17170    0.50440    0.89610    1.000
    H36      H        0.15980    0.48950    0.98640    1.000
    H37      H        0.21070    0.50910    0.89870    1.000
    C47      C        0.14270    0.55850    0.86520    1.000
    H38      H        0.15260    0.57060    0.77030    1.000
    H39      H        0.15540    0.58520    0.93280    1.000
    C48      C        0.06490    0.51730    0.74770    1.000
    H40      H        0.07630    0.53350    0.65730    1.000
    C49      C        0.15490    0.46750    0.77010    1.000
    H41      H        0.17160    0.43250    0.78110    1.000
    H42      H        0.16730    0.48290    0.68080    1.000
    C50      C        0.07990    0.55470    0.87500    1.000
    H43      H        0.06320    0.58970    0.86460    1.000
    H44      H        0.06870    0.53910    0.96520    1.000
    C51      C        0.13720    0.53460    0.94190    1.000
    H45      H        0.15130    0.56650    0.98830    1.000
    H46      H        0.13050    0.50710    0.01300    1.000
    C52      C        0.05790    0.49300    0.82510    1.000
    H47      H        0.04020    0.47700    0.90660    1.000
    C53      C        0.09920    0.47930    0.70750    1.000
    H48      H        0.09000    0.51110    0.65500    1.000
    C54      C        0.17530    0.51460    0.82450    1.000
    H49      H        0.21230    0.51070    0.85780    1.000
    H50      H        0.17450    0.53750    0.74070    1.000
    C55      C        0.14780    0.46020    0.79800    1.000
    H51      H        0.13630    0.44340    0.88650    1.000
    H52      H        0.17110    0.43580    0.74580    1.000
    C56      C        0.08580    0.54720    0.85400    1.000
    H53      H        0.06190    0.57070    0.90780    1.000
    H54      H        0.09540    0.56470    0.76550    1.000
    Zn5      Zn       0.70826    0.80232    0.11120    1.000
    Zn6      Zn       0.99068    0.06104    0.36728    1.000
    O13      O        0.91610    0.04210    0.39590    1.000
    O14      O        0.98220    0.11920    0.49870    1.000
    O15      O        0.74970    0.86150    0.20600    1.000
    O16      O        0.81840    0.84880    0.05140    1.000
    O17      O        0.19060    0.25100    0.69330    1.000
    O18      O        0.13010    0.28520    0.83060    1.000
    N5       N        0.00590    0.99680    0.25760    1.000
    N6       N        0.06780    0.07240    0.34500    1.000
    C57      C        0.09610    0.10880    0.40850    1.000
    H55      H        0.13300    0.10990    0.38890    1.000
    C58      C        0.07600    0.14670    0.50370    1.000
    C59      C        0.11380    0.18150    0.56990    1.000
    H56      H        0.15030    0.17810    0.54690    1.000
    C60      C        0.09850    0.22010    0.66710    1.000
    C61      C        0.04470    0.22350    0.70820    1.000
    H57      H        0.03420    0.24830    0.77710    1.000
    C62      C        0.00740    0.19070    0.64790    1.000
    H58      H        0.97140    0.19490    0.67540    1.000
    C63      C        0.01940    0.15050    0.54560    1.000
    C64      C        0.14310    0.25320    0.73280    1.000
    C65      C        0.97030    0.96330    0.21560    1.000
    H59      H        0.98260    0.93580    0.15680    1.000
    C66      C        0.91430    0.96280    0.24790    1.000
    C67      C        0.88070    0.92210    0.19410    1.000
    H60      H        0.89620    0.89690    0.13330    1.000
    C68      C        0.82730    0.91690    0.22450    1.000
    C69      C        0.80370    0.95440    0.31260    1.000
    H61      H        0.76700    0.95110    0.33390    1.000
    C70      C        0.83310    0.99790    0.37240    1.000
    C71      C        0.88980    0.00180    0.33850    1.000
    C72      C        0.79600    0.87270    0.15450    1.000
    C73      C        0.09180    0.03870    0.23300    1.000
    H62      H        0.08030    0.05310    0.14050    1.000
    C74      C        0.17170    0.99560    0.10390    1.000
    H63      H        0.15980    0.01050    0.01360    1.000
    H64      H        0.21070    0.99090    0.10130    1.000
    C75      C        0.14270    0.94150    0.13480    1.000
    H65      H        0.15260    0.92940    0.22970    1.000
    H66      H        0.15540    0.91480    0.06720    1.000
    C76      C        0.06490    0.98270    0.25230    1.000
    H67      H        0.07630    0.96650    0.34270    1.000
    C77      C        0.15490    0.03250    0.22990    1.000
    H68      H        0.17160    0.06750    0.21890    1.000
    H69      H        0.16730    0.01710    0.31920    1.000
    C78      C        0.07990    0.94530    0.12500    1.000
    H70      H        0.06320    0.91030    0.13540    1.000
    H71      H        0.06870    0.96090    0.03480    1.000
    C79      C        0.13720    0.96540    0.05810    1.000
    H72      H        0.15130    0.93350    0.01170    1.000
    H73      H        0.13050    0.99290    0.98700    1.000
    C80      C        0.05790    0.00700    0.17490    1.000
    H74      H        0.04020    0.02300    0.09340    1.000
    C81      C        0.09920    0.02070    0.29250    1.000
    H75      H        0.09000    0.98890    0.34500    1.000
    C82      C        0.17530    0.98540    0.17550    1.000
    H76      H        0.21230    0.98930    0.14220    1.000
    H77      H        0.17450    0.96250    0.25930    1.000
    C83      C        0.14780    0.03980    0.20200    1.000
    H78      H        0.13630    0.05660    0.11350    1.000
    H79      H        0.17110    0.06420    0.25420    1.000
    C84      C        0.08580    0.95280    0.14600    1.000
    H80      H        0.06190    0.92930    0.09220    1.000
    H81      H        0.09540    0.93530    0.23450    1.000
    Zn7      Zn       0.79174    0.69768    0.11120    1.000
    Zn8      Zn       0.50932    0.43896    0.36728    1.000
    O19      O        0.58390    0.45790    0.39590    1.000
    O20      O        0.51780    0.38080    0.49870    1.000
    O21      O        0.75030    0.63850    0.20600    1.000
    O22      O        0.68160    0.65120    0.05140    1.000
    O23      O        0.30940    0.24900    0.69330    1.000
    O24      O        0.36990    0.21480    0.83060    1.000
    N7       N        0.49410    0.50320    0.25760    1.000
    N8       N        0.43220    0.42760    0.34500    1.000
    C85      C        0.40390    0.39120    0.40850    1.000
    H82      H        0.36700    0.39010    0.38890    1.000
    C86      C        0.42400    0.35330    0.50370    1.000
    C87      C        0.38620    0.31850    0.56990    1.000
    H83      H        0.34970    0.32190    0.54690    1.000
    C88      C        0.40150    0.27990    0.66710    1.000
    C89      C        0.45530    0.27650    0.70820    1.000
    H84      H        0.46580    0.25170    0.77710    1.000
    C90      C        0.49260    0.30930    0.64790    1.000
    H85      H        0.52860    0.30510    0.67540    1.000
    C91      C        0.48060    0.34950    0.54560    1.000
    C92      C        0.35690    0.24680    0.73280    1.000
    C93      C        0.52970    0.53670    0.21560    1.000
    H86      H        0.51740    0.56420    0.15680    1.000
    C94      C        0.58570    0.53720    0.24790    1.000
    C95      C        0.61930    0.57790    0.19410    1.000
    H87      H        0.60380    0.60310    0.13330    1.000
    C96      C        0.67270    0.58310    0.22450    1.000
    C97      C        0.69630    0.54560    0.31260    1.000
    H88      H        0.73300    0.54890    0.33390    1.000
    C98      C        0.66690    0.50210    0.37240    1.000
    C99      C        0.61020    0.49820    0.33850    1.000
    C100     C        0.70400    0.62730    0.15450    1.000
    C101     C        0.40820    0.46130    0.23300    1.000
    H89      H        0.41970    0.44690    0.14050    1.000
    C102     C        0.32830    0.50440    0.10390    1.000
    H90      H        0.34020    0.48950    0.01360    1.000
    H91      H        0.28930    0.50910    0.10130    1.000
    C103     C        0.35730    0.55850    0.13480    1.000
    H92      H        0.34740    0.57060    0.22970    1.000
    H93      H        0.34460    0.58520    0.06720    1.000
    C104     C        0.43510    0.51730    0.25230    1.000
    H94      H        0.42370    0.53350    0.34270    1.000
    C105     C        0.34510    0.46750    0.22990    1.000
    H95      H        0.32840    0.43250    0.21890    1.000
    H96      H        0.33270    0.48290    0.31920    1.000
    C106     C        0.42010    0.55470    0.12500    1.000
    H97      H        0.43680    0.58970    0.13540    1.000
    H98      H        0.43130    0.53910    0.03480    1.000
    C107     C        0.36280    0.53460    0.05810    1.000
    H99      H        0.34870    0.56650    0.01170    1.000
    H100     H        0.36950    0.50710    0.98700    1.000
    C108     C        0.44210    0.49300    0.17490    1.000
    H101     H        0.45980    0.47700    0.09340    1.000
    C109     C        0.40080    0.47930    0.29250    1.000
    H102     H        0.41000    0.51110    0.34500    1.000
    C110     C        0.32470    0.51460    0.17550    1.000
    H103     H        0.28770    0.51070    0.14220    1.000
    H104     H        0.32550    0.53750    0.25930    1.000
    C111     C        0.35220    0.46020    0.20200    1.000
    H105     H        0.36370    0.44340    0.11350    1.000
    H106     H        0.32890    0.43580    0.25420    1.000
    C112     C        0.41420    0.54720    0.14600    1.000
    H107     H        0.43810    0.57070    0.09220    1.000
    H108     H        0.40460    0.56470    0.23450    1.000
    Zn9      Zn       0.20826    0.19768    0.11120    1.000
    Zn10     Zn       0.49068    0.93896    0.36728    1.000
    O25      O        0.41610    0.95790    0.39590    1.000
    O26      O        0.48220    0.88080    0.49870    1.000
    O27      O        0.24970    0.13850    0.20600    1.000
    O28      O        0.31840    0.15120    0.05140    1.000
    O29      O        0.69060    0.74900    0.69330    1.000
    O30      O        0.63010    0.71480    0.83060    1.000
    N9       N        0.50590    0.00320    0.25760    1.000
    N10      N        0.56780    0.92760    0.34500    1.000
    C113     C        0.59610    0.89120    0.40850    1.000
    H109     H        0.63300    0.89010    0.38890    1.000
    C114     C        0.57600    0.85330    0.50370    1.000
    C115     C        0.61380    0.81850    0.56990    1.000
    H110     H        0.65030    0.82190    0.54690    1.000
    C116     C        0.59850    0.77990    0.66710    1.000
    C117     C        0.54470    0.77650    0.70820    1.000
    H111     H        0.53420    0.75170    0.77710    1.000
    C118     C        0.50740    0.80930    0.64790    1.000
    H112     H        0.47140    0.80510    0.67540    1.000
    C119     C        0.51940    0.84950    0.54560    1.000
    C120     C        0.64310    0.74680    0.73280    1.000
    C121     C        0.47030    0.03670    0.21560    1.000
    H113     H        0.48260    0.06420    0.15680    1.000
    C122     C        0.41430    0.03720    0.24790    1.000
    C123     C        0.38070    0.07790    0.19410    1.000
    H114     H        0.39620    0.10310    0.13330    1.000
    C124     C        0.32730    0.08310    0.22450    1.000
    C125     C        0.30370    0.04560    0.31260    1.000
    H115     H        0.26700    0.04890    0.33390    1.000
    C126     C        0.33310    0.00210    0.37240    1.000
    C127     C        0.38980    0.99820    0.33850    1.000
    C128     C        0.29600    0.12730    0.15450    1.000
    C129     C        0.59180    0.96130    0.23300    1.000
    H116     H        0.58030    0.94690    0.14050    1.000
    C130     C        0.67170    0.00440    0.10390    1.000
    H117     H        0.65980    0.98950    0.01360    1.000
    H118     H        0.71070    0.00910    0.10130    1.000
    C131     C        0.64270    0.05850    0.13480    1.000
    H119     H        0.65260    0.07060    0.22970    1.000
    H120     H        0.65540    0.08520    0.06720    1.000
    C132     C        0.56490    0.01730    0.25230    1.000
    H121     H        0.57630    0.03350    0.34270    1.000
    C133     C        0.65490    0.96750    0.22990    1.000
    H122     H        0.67160    0.93250    0.21890    1.000
    H123     H        0.66730    0.98290    0.31920    1.000
    C134     C        0.57990    0.05470    0.12500    1.000
    H124     H        0.56320    0.08970    0.13540    1.000
    H125     H        0.56870    0.03910    0.03480    1.000
    C135     C        0.63720    0.03460    0.05810    1.000
    H126     H        0.65130    0.06650    0.01170    1.000
    H127     H        0.63050    0.00710    0.98700    1.000
    C136     C        0.55790    0.99300    0.17490    1.000
    H128     H        0.54020    0.97700    0.09340    1.000
    C137     C        0.59920    0.97930    0.29250    1.000
    H129     H        0.59000    0.01110    0.34500    1.000
    C138     C        0.67530    0.01460    0.17550    1.000
    H130     H        0.71230    0.01070    0.14220    1.000
    H131     H        0.67450    0.03750    0.25930    1.000
    C139     C        0.64780    0.96020    0.20200    1.000
    H132     H        0.63630    0.94340    0.11350    1.000
    H133     H        0.67110    0.93580    0.25420    1.000
    C140     C        0.58580    0.04720    0.14600    1.000
    H134     H        0.56190    0.07070    0.09220    1.000
    H135     H        0.59540    0.06470    0.23450    1.000
    Zn11     Zn       0.29174    0.30232    0.11120    1.000
    Zn12     Zn       0.00932    0.56104    0.36728    1.000
    O31      O        0.08390    0.54210    0.39590    1.000
    O32      O        0.01780    0.61920    0.49870    1.000
    O33      O        0.25030    0.36150    0.20600    1.000
    O34      O        0.18160    0.34880    0.05140    1.000
    O35      O        0.80940    0.75100    0.69330    1.000
    O36      O        0.86990    0.78520    0.83060    1.000
    N11      N        0.99410    0.49680    0.25760    1.000
    N12      N        0.93220    0.57240    0.34500    1.000
    C141     C        0.90390    0.60880    0.40850    1.000
    H136     H        0.86700    0.60990    0.38890    1.000
    C142     C        0.92400    0.64670    0.50370    1.000
    C143     C        0.88620    0.68150    0.56990    1.000
    H137     H        0.84970    0.67810    0.54690    1.000
    C144     C        0.90150    0.72010    0.66710    1.000
    C145     C        0.95530    0.72350    0.70820    1.000
    H138     H        0.96580    0.74830    0.77710    1.000
    C146     C        0.99260    0.69070    0.64790    1.000
    H139     H        0.02860    0.69490    0.67540    1.000
    C147     C        0.98060    0.65050    0.54560    1.000
    C148     C        0.85690    0.75320    0.73280    1.000
    C149     C        0.02970    0.46330    0.21560    1.000
    H140     H        0.01740    0.43580    0.15680    1.000
    C150     C        0.08570    0.46280    0.24790    1.000
    C151     C        0.11930    0.42210    0.19410    1.000
    H141     H        0.10380    0.39690    0.13330    1.000
    C152     C        0.17270    0.41690    0.22450    1.000
    C153     C        0.19630    0.45440    0.31260    1.000
    H142     H        0.23300    0.45110    0.33390    1.000
    C154     C        0.16690    0.49790    0.37240    1.000
    C155     C        0.11020    0.50180    0.33850    1.000
    C156     C        0.20400    0.37270    0.15450    1.000
    C157     C        0.90820    0.53870    0.23300    1.000
    H143     H        0.91970    0.55310    0.14050    1.000
    C158     C        0.82830    0.49560    0.10390    1.000
    H144     H        0.84020    0.51050    0.01360    1.000
    H145     H        0.78930    0.49090    0.10130    1.000
    C159     C        0.85730    0.44150    0.13480    1.000
    H146     H        0.84740    0.42940    0.22970    1.000
    H147     H        0.84460    0.41480    0.06720    1.000
    C160     C        0.93510    0.48270    0.25230    1.000
    H148     H        0.92370    0.46650    0.34270    1.000
    C161     C        0.84510    0.53250    0.22990    1.000
    H149     H        0.82840    0.56750    0.21890    1.000
    H150     H        0.83270    0.51710    0.31920    1.000
    C162     C        0.92010    0.44530    0.12500    1.000
    H151     H        0.93680    0.41030    0.13540    1.000
    H152     H        0.93130    0.46090    0.03480    1.000
    C163     C        0.86280    0.46540    0.05810    1.000
    H153     H        0.84870    0.43350    0.01170    1.000
    H154     H        0.86950    0.49290    0.98700    1.000
    C164     C        0.94210    0.50700    0.17490    1.000
    H155     H        0.95980    0.52300    0.09340    1.000
    C165     C        0.90080    0.52070    0.29250    1.000
    H156     H        0.91000    0.48890    0.34500    1.000
    C166     C        0.82470    0.48540    0.17550    1.000
    H157     H        0.78770    0.48930    0.14220    1.000
    H158     H        0.82550    0.46250    0.25930    1.000
    C167     C        0.85220    0.53980    0.20200    1.000
    H159     H        0.86370    0.55660    0.11350    1.000
    H160     H        0.82890    0.56420    0.25420    1.000
    C168     C        0.91420    0.45280    0.14600    1.000
    H161     H        0.93810    0.42930    0.09220    1.000
    H162     H        0.90460    0.43530    0.23450    1.000
    Zn13     Zn       0.29174    0.19768    0.88880    1.000
    Zn14     Zn       0.00932    0.93896    0.63272    1.000
    O37      O        0.08390    0.95790    0.60410    1.000
    O38      O        0.01780    0.88080    0.50130    1.000
    O39      O        0.25030    0.13850    0.79400    1.000
    O40      O        0.18160    0.15120    0.94860    1.000
    O41      O        0.80940    0.74900    0.30670    1.000
    O42      O        0.86990    0.71480    0.16940    1.000
    N13      N        0.99410    0.00320    0.74240    1.000
    N14      N        0.93220    0.92760    0.65500    1.000
    C169     C        0.90390    0.89120    0.59150    1.000
    H163     H        0.86700    0.89010    0.61110    1.000
    C170     C        0.92400    0.85330    0.49630    1.000
    C171     C        0.88620    0.81850    0.43010    1.000
    H164     H        0.84970    0.82190    0.45310    1.000
    C172     C        0.90150    0.77990    0.33290    1.000
    C173     C        0.95530    0.77650    0.29180    1.000
    H165     H        0.96580    0.75170    0.22290    1.000
    C174     C        0.99260    0.80930    0.35210    1.000
    H166     H        0.02860    0.80510    0.32460    1.000
    C175     C        0.98060    0.84950    0.45440    1.000
    C176     C        0.85690    0.74680    0.26720    1.000
    C177     C        0.02970    0.03670    0.78440    1.000
    H167     H        0.01740    0.06420    0.84320    1.000
    C178     C        0.08570    0.03720    0.75210    1.000
    C179     C        0.11930    0.07790    0.80590    1.000
    H168     H        0.10380    0.10310    0.86670    1.000
    C180     C        0.17270    0.08310    0.77550    1.000
    C181     C        0.19630    0.04560    0.68740    1.000
    H169     H        0.23300    0.04890    0.66610    1.000
    C182     C        0.16690    0.00210    0.62760    1.000
    C183     C        0.11020    0.99820    0.66150    1.000
    C184     C        0.20400    0.12730    0.84550    1.000
    C185     C        0.90820    0.96130    0.76700    1.000
    H170     H        0.91970    0.94690    0.85950    1.000
    C186     C        0.82830    0.00440    0.89610    1.000
    H171     H        0.84020    0.98950    0.98640    1.000
    H172     H        0.78930    0.00910    0.89870    1.000
    C187     C        0.85730    0.05850    0.86520    1.000
    H173     H        0.84740    0.07060    0.77030    1.000
    H174     H        0.84460    0.08520    0.93280    1.000
    C188     C        0.93510    0.01730    0.74770    1.000
    H175     H        0.92370    0.03350    0.65730    1.000
    C189     C        0.84510    0.96750    0.77010    1.000
    H176     H        0.82840    0.93250    0.78110    1.000
    H177     H        0.83270    0.98290    0.68080    1.000
    C190     C        0.92010    0.05470    0.87500    1.000
    H178     H        0.93680    0.08970    0.86460    1.000
    H179     H        0.93130    0.03910    0.96520    1.000
    C191     C        0.86280    0.03460    0.94190    1.000
    H180     H        0.84870    0.06650    0.98830    1.000
    H181     H        0.86950    0.00710    0.01300    1.000
    C192     C        0.94210    0.99300    0.82510    1.000
    H182     H        0.95980    0.97700    0.90660    1.000
    C193     C        0.90080    0.97930    0.70750    1.000
    H183     H        0.91000    0.01110    0.65500    1.000
    C194     C        0.82470    0.01460    0.82450    1.000
    H184     H        0.78770    0.01070    0.85780    1.000
    H185     H        0.82550    0.03750    0.74070    1.000
    C195     C        0.85220    0.96020    0.79800    1.000
    H186     H        0.86370    0.94340    0.88650    1.000
    H187     H        0.82890    0.93580    0.74580    1.000
    C196     C        0.91420    0.04720    0.85400    1.000
    H188     H        0.93810    0.07070    0.90780    1.000
    H189     H        0.90460    0.06470    0.76550    1.000
    Zn15     Zn       0.20826    0.30232    0.88880    1.000
    Zn16     Zn       0.49068    0.56104    0.63272    1.000
    O43      O        0.41610    0.54210    0.60410    1.000
    O44      O        0.48220    0.61920    0.50130    1.000
    O45      O        0.24970    0.36150    0.79400    1.000
    O46      O        0.31840    0.34880    0.94860    1.000
    O47      O        0.69060    0.75100    0.30670    1.000
    O48      O        0.63010    0.78520    0.16940    1.000
    N15      N        0.50590    0.49680    0.74240    1.000
    N16      N        0.56780    0.57240    0.65500    1.000
    C197     C        0.59610    0.60880    0.59150    1.000
    H190     H        0.63300    0.60990    0.61110    1.000
    C198     C        0.57600    0.64670    0.49630    1.000
    C199     C        0.61380    0.68150    0.43010    1.000
    H191     H        0.65030    0.67810    0.45310    1.000
    C200     C        0.59850    0.72010    0.33290    1.000
    C201     C        0.54470    0.72350    0.29180    1.000
    H192     H        0.53420    0.74830    0.22290    1.000
    C202     C        0.50740    0.69070    0.35210    1.000
    H193     H        0.47140    0.69490    0.32460    1.000
    C203     C        0.51940    0.65050    0.45440    1.000
    C204     C        0.64310    0.75320    0.26720    1.000
    C205     C        0.47030    0.46330    0.78440    1.000
    H194     H        0.48260    0.43580    0.84320    1.000
    C206     C        0.41430    0.46280    0.75210    1.000
    C207     C        0.38070    0.42210    0.80590    1.000
    H195     H        0.39620    0.39690    0.86670    1.000
    C208     C        0.32730    0.41690    0.77550    1.000
    C209     C        0.30370    0.45440    0.68740    1.000
    H196     H        0.26700    0.45110    0.66610    1.000
    C210     C        0.33310    0.49790    0.62760    1.000
    C211     C        0.38980    0.50180    0.66150    1.000
    C212     C        0.29600    0.37270    0.84550    1.000
    C213     C        0.59180    0.53870    0.76700    1.000
    H197     H        0.58030    0.55310    0.85950    1.000
    C214     C        0.67170    0.49560    0.89610    1.000
    H198     H        0.65980    0.51050    0.98640    1.000
    H199     H        0.71070    0.49090    0.89870    1.000
    C215     C        0.64270    0.44150    0.86520    1.000
    H200     H        0.65260    0.42940    0.77030    1.000
    H201     H        0.65540    0.41480    0.93280    1.000
    C216     C        0.56490    0.48270    0.74770    1.000
    H202     H        0.57630    0.46650    0.65730    1.000
    C217     C        0.65490    0.53250    0.77010    1.000
    H203     H        0.67160    0.56750    0.78110    1.000
    H204     H        0.66730    0.51710    0.68080    1.000
    C218     C        0.57990    0.44530    0.87500    1.000
    H205     H        0.56320    0.41030    0.86460    1.000
    H206     H        0.56870    0.46090    0.96520    1.000
    C219     C        0.63720    0.46540    0.94190    1.000
    H207     H        0.65130    0.43350    0.98830    1.000
    H208     H        0.63050    0.49290    0.01300    1.000
    C220     C        0.55790    0.50700    0.82510    1.000
    H209     H        0.54020    0.52300    0.90660    1.000
    C221     C        0.59920    0.52070    0.70750    1.000
    H210     H        0.59000    0.48890    0.65500    1.000
    C222     C        0.67530    0.48540    0.82450    1.000
    H211     H        0.71230    0.48930    0.85780    1.000
    H212     H        0.67450    0.46250    0.74070    1.000
    C223     C        0.64780    0.53980    0.79800    1.000
    H213     H        0.63630    0.55660    0.88650    1.000
    H214     H        0.67110    0.56420    0.74580    1.000
    C224     C        0.58580    0.45280    0.85400    1.000
    H215     H        0.56190    0.42930    0.90780    1.000
    H216     H        0.59540    0.43530    0.76550    1.000
    O49      O        0.75000    0.75000    0.00000    1.000
    O50      O        0.25000    0.25000    0.00000    1.000
