# CIF file generated by openbabel 3.1.0, see https://openbabel.org
data_I
_chemical_name_common 'image0'
_cell_length_a 6.3541
_cell_length_b 10.46
_cell_length_c 14.769
_cell_angle_alpha 90
_cell_angle_beta 90.412
_cell_angle_gamma 90
_space_group_name_H-M_alt 'P 1'
_space_group_name_Hall 'P 1'
loop_
    _symmetry_equiv_pos_as_xyz
    x,y,z
loop_
    _atom_site_label
    _atom_site_type_symbol
    _atom_site_fract_x
    _atom_site_fract_y
    _atom_site_fract_z
    _atom_site_occupancy
    V1       V        0.25485    0.10990    0.89048    1.000
    P1       P        0.16930    0.32589    0.72581    1.000
    P2       P        0.23390    0.96720    0.08278    1.000
    O1       O        0.27650    0.22120    0.77830    1.000
    O2       O        0.23710    0.96000    0.97890    1.000
    O3       O        0.28860    0.44980    0.71770    1.000
    O4       O        0.44230    0.93250    0.12570    1.000
    O5       O        0.06020    0.88990    0.12460    1.000
    O6       O        0.12030    0.27240    0.62820    1.000
    H1       H        0.11700    0.30900    0.58300    1.000
    P3       P        0.25000    0.89830    0.07650    1.000
    V2       V        0.24515    0.60990    0.60952    1.000
    P4       P        0.33070    0.82589    0.77419    1.000
    P5       P        0.26610    0.46720    0.41722    1.000
    O7       O        0.22350    0.72120    0.72170    1.000
    O8       O        0.26290    0.46000    0.52110    1.000
    O9       O        0.21140    0.94980    0.78230    1.000
    O10      O        0.05770    0.43250    0.37430    1.000
    O11      O        0.43980    0.38990    0.37540    1.000
    O12      O        0.37970    0.77240    0.87180    1.000
    H2       H        0.38300    0.80900    0.91700    1.000
    P6       P        0.25000    0.39830    0.42350    1.000
    V3       V        0.74515    0.89010    0.10952    1.000
    P7       P        0.83070    0.67411    0.27419    1.000
    P8       P        0.76610    0.03280    0.91722    1.000
    O13      O        0.72350    0.77880    0.22170    1.000
    O14      O        0.76290    0.04000    0.02110    1.000
    O15      O        0.71140    0.55020    0.28230    1.000
    O16      O        0.55770    0.06750    0.87430    1.000
    O17      O        0.93980    0.11010    0.87540    1.000
    O18      O        0.87970    0.72760    0.37180    1.000
    H3       H        0.88300    0.69100    0.41700    1.000
    P9       P        0.75000    0.10170    0.92350    1.000
    V4       V        0.75485    0.39010    0.39048    1.000
    P10      P        0.66930    0.17411    0.22581    1.000
    P11      P        0.73390    0.53280    0.58278    1.000
    O19      O        0.77650    0.27880    0.27830    1.000
    O20      O        0.73710    0.54000    0.47890    1.000
    O21      O        0.78860    0.05020    0.21770    1.000
    O22      O        0.94230    0.56750    0.62570    1.000
    O23      O        0.56020    0.61010    0.62460    1.000
    O24      O        0.62030    0.22760    0.12820    1.000
    H4       H        0.61700    0.19100    0.08300    1.000
    P12      P        0.75000    0.60170    0.57650    1.000
