# CIF file generated by openbabel 3.1.0, see https://openbabel.org
data_I
_chemical_name_common 'image0'
_cell_length_a 14.2343
_cell_length_b 17.2526
_cell_length_c 7.2908
_cell_angle_alpha 90
_cell_angle_beta 90
_cell_angle_gamma 90
_space_group_name_H-M_alt 'P 1'
_space_group_name_Hall 'P 1'
loop_
    _symmetry_equiv_pos_as_xyz
    x,y,z
loop_
    _atom_site_label
    _atom_site_type_symbol
    _atom_site_fract_x
    _atom_site_fract_y
    _atom_site_fract_z
    _atom_site_occupancy
    N1       N        0.14850    0.23050    0.29170    1.000
    C1       C        0.09980    0.22170    0.16900    1.000
    N2       N        0.64850    0.73050    0.29170    1.000
    C2       C        0.59980    0.72170    0.16900    1.000
    N3       N        0.85150    0.76950    0.29170    1.000
    C3       C        0.90020    0.77830    0.16900    1.000
    N4       N        0.35150    0.26950    0.29170    1.000
    C4       C        0.40020    0.27830    0.16900    1.000
    N5       N        0.85150    0.23050    0.70830    1.000
    C5       C        0.90020    0.22170    0.83100    1.000
    N6       N        0.35150    0.73050    0.70830    1.000
    C6       C        0.40020    0.72170    0.83100    1.000
    N7       N        0.14850    0.76950    0.70830    1.000
    C7       C        0.09980    0.77830    0.83100    1.000
    N8       N        0.64850    0.26950    0.70830    1.000
    C8       C        0.59980    0.27830    0.83100    1.000
    N9       N        0.85150    0.76950    0.70830    1.000
    C9       C        0.90020    0.77830    0.83100    1.000
    N10      N        0.35150    0.26950    0.70830    1.000
    C10      C        0.40020    0.27830    0.83100    1.000
    N11      N        0.14850    0.23050    0.70830    1.000
    C11      C        0.09980    0.22170    0.83100    1.000
    N12      N        0.64850    0.73050    0.70830    1.000
    C12      C        0.59980    0.72170    0.83100    1.000
    N13      N        0.14850    0.76950    0.29170    1.000
    C13      C        0.09980    0.77830    0.16900    1.000
    N14      N        0.64850    0.26950    0.29170    1.000
    C14      C        0.59980    0.27830    0.16900    1.000
    N15      N        0.85150    0.23050    0.29170    1.000
    C15      C        0.90020    0.22170    0.16900    1.000
    N16      N        0.35150    0.73050    0.29170    1.000
    C16      C        0.40020    0.72170    0.16900    1.000
    Co1      Co       0.25000    0.25000    0.50000    1.000
    Co2      Co       0.75000    0.75000    0.50000    1.000
    Co3      Co       0.75000    0.25000    0.50000    1.000
    Co4      Co       0.25000    0.75000    0.50000    1.000
    N17      N        0.28520    0.13340    0.50000    1.000
    C17      C        0.31550    0.06620    0.50000    1.000
    N18      N        0.78520    0.63340    0.50000    1.000
    C18      C        0.81550    0.56620    0.50000    1.000
    N19      N        0.71480    0.86660    0.50000    1.000
    C19      C        0.68450    0.93380    0.50000    1.000
    N20      N        0.21480    0.36660    0.50000    1.000
    C20      C        0.18450    0.43380    0.50000    1.000
    N21      N        0.71480    0.13340    0.50000    1.000
    C21      C        0.68450    0.06620    0.50000    1.000
    N22      N        0.21480    0.63340    0.50000    1.000
    C22      C        0.18450    0.56620    0.50000    1.000
    N23      N        0.28520    0.86660    0.50000    1.000
    C23      C        0.31550    0.93380    0.50000    1.000
    N24      N        0.78520    0.36660    0.50000    1.000
    C24      C        0.81550    0.43380    0.50000    1.000
    C25      C        0.04580    0.22050    0.00000    1.000
    C26      C        0.54580    0.72050    0.00000    1.000
    C27      C        0.95420    0.77950    0.00000    1.000
    C28      C        0.45420    0.27950    0.00000    1.000
    C29      C        0.95420    0.22050    0.00000    1.000
    C30      C        0.45420    0.72050    0.00000    1.000
    C31      C        0.04580    0.77950    0.00000    1.000
    C32      C        0.54580    0.27950    0.00000    1.000
    C33      C        0.37080    0.00000    0.50000    1.000
    C34      C        0.87080    0.50000    0.50000    1.000
    C35      C        0.62920    0.00000    0.50000    1.000
    C36      C        0.12920    0.50000    0.50000    1.000
    C37      C        0.46430    0.00000    0.41100    1.000
    C38      C        0.96430    0.50000    0.41100    1.000
    C39      C        0.53570    0.00000    0.41100    1.000
    C40      C        0.03570    0.50000    0.41100    1.000
    C41      C        0.53570    0.00000    0.58900    1.000
    C42      C        0.03570    0.50000    0.58900    1.000
    C43      C        0.46430    0.00000    0.58900    1.000
    C44      C        0.96430    0.50000    0.58900    1.000
    N25      N        0.50000    0.87470    0.22020    1.000
    C45      C        0.50000    0.93210    0.29600    1.000
    N26      N        0.00000    0.37470    0.22020    1.000
    C46      C        0.00000    0.43210    0.29600    1.000
    N27      N        0.50000    0.12530    0.22020    1.000
    C47      C        0.50000    0.06790    0.29600    1.000
    N28      N        0.00000    0.62530    0.22020    1.000
    C48      C        0.00000    0.56790    0.29600    1.000
    N29      N        0.50000    0.87470    0.77980    1.000
    C49      C        0.50000    0.93210    0.70400    1.000
    N30      N        0.00000    0.37470    0.77980    1.000
    C50      C        0.00000    0.43210    0.70400    1.000
    N31      N        0.50000    0.12530    0.77980    1.000
    C51      C        0.50000    0.06790    0.70400    1.000
    N32      N        0.00000    0.62530    0.77980    1.000
    C52      C        0.00000    0.56790    0.70400    1.000
