# CIF file generated by openbabel 3.1.0, see https://openbabel.org
data_I
_chemical_name_common 'image0'
_cell_length_a 15.9684
_cell_length_b 15.9684
_cell_length_c 33.649
_cell_angle_alpha 90
_cell_angle_beta 90
_cell_angle_gamma 120
_space_group_name_H-M_alt 'P 1'
_space_group_name_Hall 'P 1'
loop_
    _symmetry_equiv_pos_as_xyz
    x,y,z
loop_
    _atom_site_label
    _atom_site_type_symbol
    _atom_site_fract_x
    _atom_site_fract_y
    _atom_site_fract_z
    _atom_site_occupancy
    C1       C        0.91430    0.58190    0.94230    1.000
    C2       C        0.87080    0.64050    0.95320    1.000
    C3       C        0.83170    0.63040    0.99100    1.000
    H1       H        0.83600    0.58910    0.00930    1.000
    C4       C        0.78620    0.68210    0.00147    1.000
    H2       H        0.76010    0.67530    0.02680    1.000
    C5       C        0.77980    0.74390    0.97410    1.000
    C6       C        0.81880    0.75400    0.93630    1.000
    H3       H        0.81450    0.79530    0.91800    1.000
    C7       C        0.86440    0.70230    0.92588    1.000
    H4       H        0.89050    0.70910    0.90060    1.000
    C8       C        0.72430    0.79620    0.98350    1.000
    C9       C        0.77530    0.89600    0.98810    1.000
    H5       H        0.84230    0.92970    0.98560    1.000
    C10      C        0.72610    0.94630    0.99670    1.000
    C11      C        0.62820    0.89300    0.00070    1.000
    H6       H        0.59550    0.92580    0.00710    1.000
    C12      C        0.57350    0.79320    0.99600    1.000
    C13      C        0.62530    0.74210    0.98690    1.000
    C14      C        0.46830    0.73920    0.99800    1.000
    C15      C        0.26600    0.62500    0.99910    1.000
    C16      C        0.41840    0.69140    0.96290    1.000
    H7       H        0.45220    0.69770    0.93950    1.000
    C17      C        0.31730    0.63440    0.96370    1.000
    H8       H        0.28390    0.60260    0.94090    1.000
    C18      C        0.31650    0.67240    0.03330    1.000
    H9       H        0.28330    0.66660    0.05670    1.000
    C19      C        0.41670    0.72830    0.03230    1.000
    H10      H        0.44980    0.75930    0.05530    1.000
    C20      C        0.15840    0.55820    0.99970    1.000
    N1       N        0.57190    0.64040    0.98360    1.000
    H11      H        0.60610    0.62340    0.96750    1.000
    H12      H        0.51720    0.62580    0.97040    1.000
    O1       O        0.11290    0.53660    0.03250    1.000
    O2       O        0.12010    0.52970    0.96730    1.000
    O3       O        0.91620    0.52490    0.96740    1.000
    O4       O        0.94610    0.59290    0.90730    1.000
    Zn1      Zn       0.53190    0.55007    0.03182    1.000
    C21      C        0.41290    0.74790    0.96780    1.000
    H13      H        0.44330    0.79180    0.94720    1.000
    C22      C        0.31190    0.69110    0.96840    1.000
    H14      H        0.27540    0.69750    0.94830    1.000
    C23      C        0.32040    0.61590    0.02950    1.000
    H15      H        0.28970    0.57220    0.05010    1.000
    C24      C        0.42150    0.67300    0.02890    1.000
    H16      H        0.45770    0.66690    0.04920    1.000
    C25      C        0.41810    0.33240    0.60897    1.000
    C26      C        0.35950    0.23030    0.61987    1.000
    C27      C        0.36960    0.20130    0.65767    1.000
    H17      H        0.41090    0.24690    0.67597    1.000
    C28      C        0.31790    0.10410    0.66814    1.000
    H18      H        0.32470    0.08480    0.69347    1.000
    C29      C        0.25610    0.03590    0.64077    1.000
    C30      C        0.24600    0.06480    0.60297    1.000
    H19      H        0.20470    0.01920    0.58467    1.000
    C31      C        0.29770    0.16210    0.59255    1.000
    H20      H        0.29090    0.18140    0.56727    1.000
    C32      C        0.20380    0.92810    0.65017    1.000
    C33      C        0.10400    0.87930    0.65477    1.000
    H21      H        0.07030    0.91260    0.65227    1.000
    C34      C        0.05370    0.77980    0.66337    1.000
    C35      C        0.10700    0.73520    0.66737    1.000
    H22      H        0.07420    0.66970    0.67377    1.000
    C36      C        0.20680    0.78030    0.66267    1.000
    C37      C        0.25790    0.88320    0.65357    1.000
    C38      C        0.26080    0.72910    0.66467    1.000
    C39      C        0.37500    0.64100    0.66577    1.000
    C40      C        0.30860    0.72700    0.62957    1.000
    H23      H        0.30230    0.75450    0.60617    1.000
    C41      C        0.36560    0.68290    0.63037    1.000
    H24      H        0.39740    0.68130    0.60757    1.000
    C42      C        0.32760    0.64410    0.69997    1.000
    H25      H        0.33340    0.61670    0.72337    1.000
    C43      C        0.27170    0.68840    0.69897    1.000
    H26      H        0.24070    0.69050    0.72197    1.000
    C44      C        0.44180    0.60020    0.66637    1.000
    N2       N        0.35960    0.93150    0.65027    1.000
    H27      H        0.37660    0.98270    0.63417    1.000
    H28      H        0.37420    0.89140    0.63707    1.000
    O5       O        0.46340    0.57630    0.69917    1.000
    O6       O        0.47030    0.59040    0.63397    1.000
    O7       O        0.47510    0.39130    0.63407    1.000
    O8       O        0.40710    0.35320    0.57397    1.000
    Zn2      Zn       0.44993    0.98183    0.69849    1.000
    C45      C        0.25210    0.66500    0.63447    1.000
    H29      H        0.20820    0.65150    0.61387    1.000
    C46      C        0.30890    0.62080    0.63507    1.000
    H30      H        0.30250    0.57790    0.61497    1.000
    C47      C        0.38410    0.70450    0.69617    1.000
    H31      H        0.42780    0.71750    0.71677    1.000
    C48      C        0.32700    0.74850    0.69557    1.000
    H32      H        0.33310    0.79080    0.71587    1.000
    C49      C        0.66760    0.08570    0.27563    1.000
    C50      C        0.76970    0.12920    0.28653    1.000
    C51      C        0.79870    0.16830    0.32433    1.000
    H33      H        0.75310    0.16400    0.34263    1.000
    C52      C        0.89590    0.21380    0.33480    1.000
    H34      H        0.91520    0.23990    0.36013    1.000
    C53      C        0.96410    0.22020    0.30743    1.000
    C54      C        0.93520    0.18120    0.26963    1.000
    H35      H        0.98080    0.18550    0.25133    1.000
    C55      C        0.83790    0.13560    0.25921    1.000
    H36      H        0.81860    0.10950    0.23393    1.000
    C56      C        0.07190    0.27570    0.31683    1.000
    C57      C        0.12070    0.22470    0.32143    1.000
    H37      H        0.08740    0.15770    0.31893    1.000
    C58      C        0.22020    0.27390    0.33003    1.000
    C59      C        0.26480    0.37180    0.33403    1.000
    H38      H        0.33030    0.40450    0.34043    1.000
    C60      C        0.21970    0.42650    0.32933    1.000
    C61      C        0.11680    0.37470    0.32023    1.000
    C62      C        0.27090    0.53170    0.33133    1.000
    C63      C        0.35900    0.73400    0.33243    1.000
    C64      C        0.27300    0.58160    0.29623    1.000
    H39      H        0.24550    0.54780    0.27283    1.000
    C65      C        0.31710    0.68270    0.29703    1.000
    H40      H        0.31870    0.71610    0.27423    1.000
    C66      C        0.35590    0.68350    0.36663    1.000
    H41      H        0.38330    0.71670    0.39003    1.000
    C67      C        0.31160    0.58330    0.36563    1.000
    H42      H        0.30950    0.55020    0.38863    1.000
    C68      C        0.39980    0.84160    0.33303    1.000
    N3       N        0.06850    0.42810    0.31693    1.000
    H43      H        0.01730    0.39390    0.30083    1.000
    H44      H        0.10860    0.48280    0.30373    1.000
    O9       O        0.42370    0.88710    0.36583    1.000
    O10      O        0.40960    0.87990    0.30063    1.000
    O11      O        0.60870    0.08380    0.30073    1.000
    O12      O        0.64680    0.05390    0.24063    1.000
    Zn3      Zn       0.01817    0.46810    0.36515    1.000
    C69      C        0.33500    0.58710    0.30113    1.000
    H45      H        0.34850    0.55670    0.28053    1.000
    C70      C        0.37920    0.68810    0.30173    1.000
    H46      H        0.42210    0.72460    0.28163    1.000
    C71      C        0.29550    0.67960    0.36283    1.000
    H47      H        0.28250    0.71030    0.38343    1.000
    C72      C        0.25150    0.57850    0.36223    1.000
    H48      H        0.20920    0.54230    0.38253    1.000
    C73      C        0.08570    0.41810    0.44230    1.000
    C74      C        0.12920    0.35950    0.45320    1.000
    C75      C        0.16830    0.36960    0.49100    1.000
    H49      H        0.16400    0.41090    0.50930    1.000
    C76      C        0.21380    0.31790    0.50147    1.000
    H50      H        0.23990    0.32470    0.52680    1.000
    C77      C        0.22020    0.25610    0.47410    1.000
    C78      C        0.18120    0.24600    0.43630    1.000
    H51      H        0.18550    0.20470    0.41800    1.000
    C79      C        0.13560    0.29770    0.42588    1.000
    H52      H        0.10950    0.29090    0.40060    1.000
    C80      C        0.27570    0.20380    0.48350    1.000
    C81      C        0.22470    0.10400    0.48810    1.000
    H53      H        0.15770    0.07030    0.48560    1.000
    C82      C        0.27390    0.05370    0.49670    1.000
    C83      C        0.37180    0.10700    0.50070    1.000
    H54      H        0.40450    0.07420    0.50710    1.000
    C84      C        0.42650    0.20680    0.49600    1.000
    C85      C        0.37470    0.25790    0.48690    1.000
    C86      C        0.53170    0.26080    0.49800    1.000
    C87      C        0.73400    0.37500    0.49910    1.000
    C88      C        0.58160    0.30860    0.46290    1.000
    H55      H        0.54780    0.30230    0.43950    1.000
    C89      C        0.68270    0.36560    0.46370    1.000
    H56      H        0.71610    0.39740    0.44090    1.000
    C90      C        0.68350    0.32760    0.53330    1.000
    H57      H        0.71670    0.33340    0.55670    1.000
    C91      C        0.58330    0.27170    0.53230    1.000
    H58      H        0.55020    0.24070    0.55530    1.000
    C92      C        0.84160    0.44180    0.49970    1.000
    N4       N        0.42810    0.35960    0.48360    1.000
    H59      H        0.39390    0.37660    0.46750    1.000
    H60      H        0.48280    0.37420    0.47040    1.000
    O13      O        0.88710    0.46340    0.53250    1.000
    O14      O        0.87990    0.47030    0.46730    1.000
    O15      O        0.08380    0.47510    0.46740    1.000
    O16      O        0.05390    0.40710    0.40730    1.000
    Zn4      Zn       0.46810    0.44993    0.53182    1.000
    C93      C        0.58710    0.25210    0.46780    1.000
    H61      H        0.55670    0.20820    0.44720    1.000
    C94      C        0.68810    0.30890    0.46840    1.000
    H62      H        0.72460    0.30250    0.44830    1.000
    C95      C        0.67960    0.38410    0.52950    1.000
    H63      H        0.71030    0.42780    0.55010    1.000
    C96      C        0.57850    0.32700    0.52890    1.000
    H64      H        0.54230    0.33310    0.54920    1.000
    C97      C        0.58190    0.66760    0.10897    1.000
    C98      C        0.64050    0.76970    0.11987    1.000
    C99      C        0.63040    0.79870    0.15767    1.000
    H65      H        0.58910    0.75310    0.17597    1.000
    C100     C        0.68210    0.89590    0.16814    1.000
    H66      H        0.67530    0.91520    0.19347    1.000
    C101     C        0.74390    0.96410    0.14077    1.000
    C102     C        0.75400    0.93520    0.10297    1.000
    H67      H        0.79530    0.98080    0.08467    1.000
    C103     C        0.70230    0.83790    0.09255    1.000
    H68      H        0.70910    0.81860    0.06727    1.000
    C104     C        0.79620    0.07190    0.15017    1.000
    C105     C        0.89600    0.12070    0.15477    1.000
    H69      H        0.92970    0.08740    0.15227    1.000
    C106     C        0.94630    0.22020    0.16337    1.000
    C107     C        0.89300    0.26480    0.16737    1.000
    H70      H        0.92580    0.33030    0.17377    1.000
    C108     C        0.79320    0.21970    0.16267    1.000
    C109     C        0.74210    0.11680    0.15357    1.000
    C110     C        0.73920    0.27090    0.16467    1.000
    C111     C        0.62500    0.35900    0.16577    1.000
    C112     C        0.69140    0.27300    0.12957    1.000
    H71      H        0.69770    0.24550    0.10617    1.000
    C113     C        0.63440    0.31710    0.13037    1.000
    H72      H        0.60260    0.31870    0.10757    1.000
    C114     C        0.67240    0.35590    0.19997    1.000
    H73      H        0.66660    0.38330    0.22337    1.000
    C115     C        0.72830    0.31160    0.19897    1.000
    H74      H        0.75930    0.30950    0.22197    1.000
    C116     C        0.55820    0.39980    0.16637    1.000
    N5       N        0.64040    0.06850    0.15027    1.000
    H75      H        0.62340    0.01730    0.13417    1.000
    H76      H        0.62580    0.10860    0.13707    1.000
    O17      O        0.53660    0.42370    0.19917    1.000
    O18      O        0.52970    0.40960    0.13397    1.000
    O19      O        0.52490    0.60870    0.13407    1.000
    O20      O        0.59290    0.64680    0.07397    1.000
    Zn5      Zn       0.55007    0.01817    0.19849    1.000
    C117     C        0.74790    0.33500    0.13447    1.000
    H77      H        0.79180    0.34850    0.11387    1.000
    C118     C        0.69110    0.37920    0.13507    1.000
    H78      H        0.69750    0.42210    0.11497    1.000
    C119     C        0.61590    0.29550    0.19617    1.000
    H79      H        0.57220    0.28250    0.21677    1.000
    C120     C        0.67300    0.25150    0.19557    1.000
    H80      H        0.66690    0.20920    0.21587    1.000
    C121     C        0.33240    0.91430    0.77563    1.000
    C122     C        0.23030    0.87080    0.78653    1.000
    C123     C        0.20130    0.83170    0.82433    1.000
    H81      H        0.24690    0.83600    0.84263    1.000
    C124     C        0.10410    0.78620    0.83480    1.000
    H82      H        0.08480    0.76010    0.86013    1.000
    C125     C        0.03590    0.77980    0.80743    1.000
    C126     C        0.06480    0.81880    0.76963    1.000
    H83      H        0.01920    0.81450    0.75133    1.000
    C127     C        0.16210    0.86440    0.75921    1.000
    H84      H        0.18140    0.89050    0.73393    1.000
    C128     C        0.92810    0.72430    0.81683    1.000
    C129     C        0.87930    0.77530    0.82143    1.000
    H85      H        0.91260    0.84230    0.81893    1.000
    C130     C        0.77980    0.72610    0.83003    1.000
    C131     C        0.73520    0.62820    0.83403    1.000
    H86      H        0.66970    0.59550    0.84043    1.000
    C132     C        0.78030    0.57350    0.82933    1.000
    C133     C        0.88320    0.62530    0.82023    1.000
    C134     C        0.72910    0.46830    0.83133    1.000
    C135     C        0.64100    0.26600    0.83243    1.000
    C136     C        0.72700    0.41840    0.79623    1.000
    H87      H        0.75450    0.45220    0.77283    1.000
    C137     C        0.68290    0.31730    0.79703    1.000
    H88      H        0.68130    0.28390    0.77423    1.000
    C138     C        0.64410    0.31650    0.86663    1.000
    H89      H        0.61670    0.28330    0.89003    1.000
    C139     C        0.68840    0.41670    0.86563    1.000
    H90      H        0.69050    0.44980    0.88863    1.000
    C140     C        0.60020    0.15840    0.83303    1.000
    N6       N        0.93150    0.57190    0.81693    1.000
    H91      H        0.98270    0.60610    0.80083    1.000
    H92      H        0.89140    0.51720    0.80373    1.000
    O21      O        0.57630    0.11290    0.86583    1.000
    O22      O        0.59040    0.12010    0.80063    1.000
    O23      O        0.39130    0.91620    0.80073    1.000
    O24      O        0.35320    0.94610    0.74063    1.000
    Zn6      Zn       0.98183    0.53190    0.86515    1.000
    C141     C        0.66500    0.41290    0.80113    1.000
    H93      H        0.65150    0.44330    0.78053    1.000
    C142     C        0.62080    0.31190    0.80173    1.000
    H94      H        0.57790    0.27540    0.78163    1.000
    C143     C        0.70450    0.32040    0.86283    1.000
    H95      H        0.71750    0.28970    0.88343    1.000
    C144     C        0.74850    0.42150    0.86223    1.000
    H96      H        0.79080    0.45770    0.88253    1.000
    C145     C        0.58190    0.91430    0.72437    1.000
    C146     C        0.64050    0.87080    0.71347    1.000
    C147     C        0.63040    0.83170    0.67567    1.000
    H97      H        0.58910    0.83600    0.65737    1.000
    C148     C        0.68210    0.78620    0.66520    1.000
    H98      H        0.67530    0.76010    0.63987    1.000
    C149     C        0.74390    0.77980    0.69257    1.000
    C150     C        0.75400    0.81880    0.73037    1.000
    H99      H        0.79530    0.81450    0.74867    1.000
    C151     C        0.70230    0.86440    0.74079    1.000
    H100     H        0.70910    0.89050    0.76607    1.000
    C152     C        0.79620    0.72430    0.68317    1.000
    C153     C        0.89600    0.77530    0.67857    1.000
    H101     H        0.92970    0.84230    0.68107    1.000
    C154     C        0.94630    0.72610    0.66997    1.000
    C155     C        0.89300    0.62820    0.66597    1.000
    H102     H        0.92580    0.59550    0.65957    1.000
    C156     C        0.79320    0.57350    0.67067    1.000
    C157     C        0.74210    0.62530    0.67977    1.000
    C158     C        0.73920    0.46830    0.66867    1.000
    C159     C        0.62500    0.26600    0.66757    1.000
    C160     C        0.69140    0.41840    0.70377    1.000
    H103     H        0.69770    0.45220    0.72717    1.000
    C161     C        0.63440    0.31730    0.70297    1.000
    H104     H        0.60260    0.28390    0.72577    1.000
    C162     C        0.67240    0.31650    0.63337    1.000
    H105     H        0.66660    0.28330    0.60997    1.000
    C163     C        0.72830    0.41670    0.63437    1.000
    H106     H        0.75930    0.44980    0.61137    1.000
    C164     C        0.55820    0.15840    0.66697    1.000
    N7       N        0.64040    0.57190    0.68307    1.000
    H107     H        0.62340    0.60610    0.69917    1.000
    H108     H        0.62580    0.51720    0.69627    1.000
    O25      O        0.53660    0.11290    0.63417    1.000
    O26      O        0.52970    0.12010    0.69937    1.000
    O27      O        0.52490    0.91620    0.69927    1.000
    O28      O        0.59290    0.94610    0.75937    1.000
    Zn7      Zn       0.55007    0.53190    0.63485    1.000
    C165     C        0.74790    0.41290    0.69887    1.000
    H109     H        0.79180    0.44330    0.71947    1.000
    C166     C        0.69110    0.31190    0.69827    1.000
    H110     H        0.69750    0.27540    0.71837    1.000
    C167     C        0.61590    0.32040    0.63717    1.000
    H111     H        0.57220    0.28970    0.61657    1.000
    C168     C        0.67300    0.42150    0.63777    1.000
    H112     H        0.66690    0.45770    0.61747    1.000
    C169     C        0.33240    0.41810    0.05770    1.000
    C170     C        0.23030    0.35950    0.04680    1.000
    C171     C        0.20130    0.36960    0.00900    1.000
    H113     H        0.24690    0.41090    0.99070    1.000
    C172     C        0.10410    0.31790    0.99853    1.000
    H114     H        0.08480    0.32470    0.97320    1.000
    C173     C        0.03590    0.25610    0.02590    1.000
    C174     C        0.06480    0.24600    0.06370    1.000
    H115     H        0.01920    0.20470    0.08200    1.000
    C175     C        0.16210    0.29770    0.07412    1.000
    H116     H        0.18140    0.29090    0.09940    1.000
    C176     C        0.92810    0.20380    0.01650    1.000
    C177     C        0.87930    0.10400    0.01190    1.000
    H117     H        0.91260    0.07030    0.01440    1.000
    C178     C        0.77980    0.05370    0.00330    1.000
    C179     C        0.73520    0.10700    0.99930    1.000
    H118     H        0.66970    0.07420    0.99290    1.000
    C180     C        0.78030    0.20680    0.00400    1.000
    C181     C        0.88320    0.25790    0.01310    1.000
    C182     C        0.72910    0.26080    0.00200    1.000
    C183     C        0.64100    0.37500    0.00090    1.000
    C184     C        0.72700    0.30860    0.03710    1.000
    H119     H        0.75450    0.30230    0.06050    1.000
    C185     C        0.68290    0.36560    0.03630    1.000
    H120     H        0.68130    0.39740    0.05910    1.000
    C186     C        0.64410    0.32760    0.96670    1.000
    H121     H        0.61670    0.33340    0.94330    1.000
    C187     C        0.68840    0.27170    0.96770    1.000
    H122     H        0.69050    0.24070    0.94470    1.000
    C188     C        0.60020    0.44180    0.00030    1.000
    N8       N        0.93150    0.35960    0.01640    1.000
    H123     H        0.98270    0.37660    0.03250    1.000
    H124     H        0.89140    0.37420    0.02960    1.000
    O29      O        0.57630    0.46340    0.96750    1.000
    O30      O        0.59040    0.47030    0.03270    1.000
    O31      O        0.39130    0.47510    0.03260    1.000
    O32      O        0.35320    0.40710    0.09270    1.000
    Zn8      Zn       0.98183    0.44993    0.96818    1.000
    C189     C        0.66500    0.25210    0.03220    1.000
    H125     H        0.65150    0.20820    0.05280    1.000
    C190     C        0.62080    0.30890    0.03160    1.000
    H126     H        0.57790    0.30250    0.05170    1.000
    C191     C        0.70450    0.38410    0.97050    1.000
    H127     H        0.71750    0.42780    0.94990    1.000
    C192     C        0.74850    0.32700    0.97110    1.000
    H128     H        0.79080    0.33310    0.95080    1.000
    C193     C        0.08570    0.66760    0.39103    1.000
    C194     C        0.12920    0.76970    0.38013    1.000
    C195     C        0.16830    0.79870    0.34233    1.000
    H129     H        0.16400    0.75310    0.32403    1.000
    C196     C        0.21380    0.89590    0.33186    1.000
    H130     H        0.23990    0.91520    0.30653    1.000
    C197     C        0.22020    0.96410    0.35923    1.000
    C198     C        0.18120    0.93520    0.39703    1.000
    H131     H        0.18550    0.98080    0.41533    1.000
    C199     C        0.13560    0.83790    0.40745    1.000
    H132     H        0.10950    0.81860    0.43273    1.000
    C200     C        0.27570    0.07190    0.34983    1.000
    C201     C        0.22470    0.12070    0.34523    1.000
    H133     H        0.15770    0.08740    0.34773    1.000
    C202     C        0.27390    0.22020    0.33663    1.000
    C203     C        0.37180    0.26480    0.33263    1.000
    H134     H        0.40450    0.33030    0.32623    1.000
    C204     C        0.42650    0.21970    0.33733    1.000
    C205     C        0.37470    0.11680    0.34643    1.000
    C206     C        0.53170    0.27090    0.33533    1.000
    C207     C        0.73400    0.35900    0.33423    1.000
    C208     C        0.58160    0.27300    0.37043    1.000
    H135     H        0.54780    0.24550    0.39383    1.000
    C209     C        0.68270    0.31710    0.36963    1.000
    H136     H        0.71610    0.31870    0.39243    1.000
    C210     C        0.68350    0.35590    0.30003    1.000
    H137     H        0.71670    0.38330    0.27663    1.000
    C211     C        0.58330    0.31160    0.30103    1.000
    H138     H        0.55020    0.30950    0.27803    1.000
    C212     C        0.84160    0.39980    0.33363    1.000
    N9       N        0.42810    0.06850    0.34973    1.000
    H139     H        0.39390    0.01730    0.36583    1.000
    H140     H        0.48280    0.10860    0.36293    1.000
    O33      O        0.88710    0.42370    0.30083    1.000
    O34      O        0.87990    0.40960    0.36603    1.000
    O35      O        0.08380    0.60870    0.36593    1.000
    O36      O        0.05390    0.64680    0.42603    1.000
    Zn9      Zn       0.46810    0.01817    0.30151    1.000
    C213     C        0.58710    0.33500    0.36553    1.000
    H141     H        0.55670    0.34850    0.38613    1.000
    C214     C        0.68810    0.37920    0.36493    1.000
    H142     H        0.72460    0.42210    0.38503    1.000
    C215     C        0.67960    0.29550    0.30383    1.000
    H143     H        0.71030    0.28250    0.28323    1.000
    C216     C        0.57850    0.25150    0.30443    1.000
    H144     H        0.54230    0.20920    0.28413    1.000
    C217     C        0.41810    0.08570    0.22437    1.000
    C218     C        0.35950    0.12920    0.21347    1.000
    C219     C        0.36960    0.16830    0.17567    1.000
    H145     H        0.41090    0.16400    0.15737    1.000
    C220     C        0.31790    0.21380    0.16520    1.000
    H146     H        0.32470    0.23990    0.13987    1.000
    C221     C        0.25610    0.22020    0.19257    1.000
    C222     C        0.24600    0.18120    0.23037    1.000
    H147     H        0.20470    0.18550    0.24867    1.000
    C223     C        0.29770    0.13560    0.24079    1.000
    H148     H        0.29090    0.10950    0.26607    1.000
    C224     C        0.20380    0.27570    0.18317    1.000
    C225     C        0.10400    0.22470    0.17857    1.000
    H149     H        0.07030    0.15770    0.18107    1.000
    C226     C        0.05370    0.27390    0.16997    1.000
    C227     C        0.10700    0.37180    0.16597    1.000
    H150     H        0.07420    0.40450    0.15957    1.000
    C228     C        0.20680    0.42650    0.17067    1.000
    C229     C        0.25790    0.37470    0.17977    1.000
    C230     C        0.26080    0.53170    0.16867    1.000
    C231     C        0.37500    0.73400    0.16757    1.000
    C232     C        0.30860    0.58160    0.20377    1.000
    H151     H        0.30230    0.54780    0.22717    1.000
    C233     C        0.36560    0.68270    0.20297    1.000
    H152     H        0.39740    0.71610    0.22577    1.000
    C234     C        0.32760    0.68350    0.13337    1.000
    H153     H        0.33340    0.71670    0.10997    1.000
    C235     C        0.27170    0.58330    0.13437    1.000
    H154     H        0.24070    0.55020    0.11137    1.000
    C236     C        0.44180    0.84160    0.16697    1.000
    N10      N        0.35960    0.42810    0.18307    1.000
    H155     H        0.37660    0.39390    0.19917    1.000
    H156     H        0.37420    0.48280    0.19627    1.000
    O37      O        0.46340    0.88710    0.13417    1.000
    O38      O        0.47030    0.87990    0.19937    1.000
    O39      O        0.47510    0.08380    0.19927    1.000
    O40      O        0.40710    0.05390    0.25937    1.000
    Zn10     Zn       0.44993    0.46810    0.13485    1.000
    C237     C        0.25210    0.58710    0.19887    1.000
    H157     H        0.20820    0.55670    0.21947    1.000
    C238     C        0.30890    0.68810    0.19827    1.000
    H158     H        0.30250    0.72460    0.21837    1.000
    C239     C        0.38410    0.67960    0.13717    1.000
    H159     H        0.42780    0.71030    0.11657    1.000
    C240     C        0.32700    0.57850    0.13777    1.000
    H160     H        0.33310    0.54230    0.11747    1.000
    C241     C        0.66760    0.58190    0.55770    1.000
    C242     C        0.76970    0.64050    0.54680    1.000
    C243     C        0.79870    0.63040    0.50900    1.000
    H161     H        0.75310    0.58910    0.49070    1.000
    C244     C        0.89590    0.68210    0.49853    1.000
    H162     H        0.91520    0.67530    0.47320    1.000
    C245     C        0.96410    0.74390    0.52590    1.000
    C246     C        0.93520    0.75400    0.56370    1.000
    H163     H        0.98080    0.79530    0.58200    1.000
    C247     C        0.83790    0.70230    0.57412    1.000
    H164     H        0.81860    0.70910    0.59940    1.000
    C248     C        0.07190    0.79620    0.51650    1.000
    C249     C        0.12070    0.89600    0.51190    1.000
    H165     H        0.08740    0.92970    0.51440    1.000
    C250     C        0.22020    0.94630    0.50330    1.000
    C251     C        0.26480    0.89300    0.49930    1.000
    H166     H        0.33030    0.92580    0.49290    1.000
    C252     C        0.21970    0.79320    0.50400    1.000
    C253     C        0.11680    0.74210    0.51310    1.000
    C254     C        0.27090    0.73920    0.50200    1.000
    C255     C        0.35900    0.62500    0.50090    1.000
    C256     C        0.27300    0.69140    0.53710    1.000
    H167     H        0.24550    0.69770    0.56050    1.000
    C257     C        0.31710    0.63440    0.53630    1.000
    H168     H        0.31870    0.60260    0.55910    1.000
    C258     C        0.35590    0.67240    0.46670    1.000
    H169     H        0.38330    0.66660    0.44330    1.000
    C259     C        0.31160    0.72830    0.46770    1.000
    H170     H        0.30950    0.75930    0.44470    1.000
    C260     C        0.39980    0.55820    0.50030    1.000
    N11      N        0.06850    0.64040    0.51640    1.000
    H171     H        0.01730    0.62340    0.53250    1.000
    H172     H        0.10860    0.62580    0.52960    1.000
    O41      O        0.42370    0.53660    0.46750    1.000
    O42      O        0.40960    0.52970    0.53270    1.000
    O43      O        0.60870    0.52490    0.53260    1.000
    O44      O        0.64680    0.59290    0.59270    1.000
    Zn11     Zn       0.01817    0.55007    0.46818    1.000
    C261     C        0.33500    0.74790    0.53220    1.000
    H173     H        0.34850    0.79180    0.55280    1.000
    C262     C        0.37920    0.69110    0.53160    1.000
    H174     H        0.42210    0.69750    0.55170    1.000
    C263     C        0.29550    0.61590    0.47050    1.000
    H175     H        0.28250    0.57220    0.44990    1.000
    C264     C        0.25150    0.67300    0.47110    1.000
    H176     H        0.20920    0.66690    0.45080    1.000
    C265     C        0.91430    0.33240    0.89103    1.000
    C266     C        0.87080    0.23030    0.88013    1.000
    C267     C        0.83170    0.20130    0.84233    1.000
    H177     H        0.83600    0.24690    0.82403    1.000
    C268     C        0.78620    0.10410    0.83186    1.000
    H178     H        0.76010    0.08480    0.80653    1.000
    C269     C        0.77980    0.03590    0.85923    1.000
    C270     C        0.81880    0.06480    0.89703    1.000
    H179     H        0.81450    0.01920    0.91533    1.000
    C271     C        0.86440    0.16210    0.90745    1.000
    H180     H        0.89050    0.18140    0.93273    1.000
    C272     C        0.72430    0.92810    0.84983    1.000
    C273     C        0.77530    0.87930    0.84523    1.000
    H181     H        0.84230    0.91260    0.84773    1.000
    C274     C        0.72610    0.77980    0.83663    1.000
    C275     C        0.62820    0.73520    0.83263    1.000
    H182     H        0.59550    0.66970    0.82623    1.000
    C276     C        0.57350    0.78030    0.83733    1.000
    C277     C        0.62530    0.88320    0.84643    1.000
    C278     C        0.46830    0.72910    0.83533    1.000
    C279     C        0.26600    0.64100    0.83423    1.000
    C280     C        0.41840    0.72700    0.87043    1.000
    H183     H        0.45220    0.75450    0.89383    1.000
    C281     C        0.31730    0.68290    0.86963    1.000
    H184     H        0.28390    0.68130    0.89243    1.000
    C282     C        0.31650    0.64410    0.80003    1.000
    H185     H        0.28330    0.61670    0.77663    1.000
    C283     C        0.41670    0.68840    0.80103    1.000
    H186     H        0.44980    0.69050    0.77803    1.000
    C284     C        0.15840    0.60020    0.83363    1.000
    N12      N        0.57190    0.93150    0.84973    1.000
    H187     H        0.60610    0.98270    0.86583    1.000
    H188     H        0.51720    0.89140    0.86293    1.000
    O45      O        0.11290    0.57630    0.80083    1.000
    O46      O        0.12010    0.59040    0.86603    1.000
    O47      O        0.91620    0.39130    0.86593    1.000
    O48      O        0.94610    0.35320    0.92603    1.000
    Zn12     Zn       0.53190    0.98183    0.80151    1.000
    C285     C        0.41290    0.66500    0.86553    1.000
    H189     H        0.44330    0.65150    0.88613    1.000
    C286     C        0.31190    0.62080    0.86493    1.000
    H190     H        0.27540    0.57790    0.88503    1.000
    C287     C        0.32040    0.70450    0.80383    1.000
    H191     H        0.28970    0.71750    0.78323    1.000
    C288     C        0.42150    0.74850    0.80443    1.000
    H192     H        0.45770    0.79080    0.78413    1.000
