# CIF file generated by openbabel 3.1.0, see https://openbabel.org
data_I
_chemical_name_common 'TIRRIW_clean'
_cell_length_a 12.939
_cell_length_b 13.092
_cell_length_c 13.754
_cell_angle_alpha 85.449
_cell_angle_beta 70.302
_cell_angle_gamma 83.731
_space_group_name_H-M_alt 'P 1'
_space_group_name_Hall 'P 1'
loop_
    _symmetry_equiv_pos_as_xyz
    x,y,z
loop_
    _atom_site_label
    _atom_site_type_symbol
    _atom_site_fract_x
    _atom_site_fract_y
    _atom_site_fract_z
    _atom_site_occupancy
    Co1      Co       0.19486    0.81682    0.17002    1.000
    Co2      Co       0.12776    0.82552    0.38169    1.000
    H1       H        0.87230    0.80340    0.16890    1.000
    H2       H        0.74380    0.78160    0.07650    1.000
    H3       H        0.56630    0.78280    0.07760    1.000
    H4       H        0.44990    0.83240    0.38140    1.000
    H5       H        0.58060    0.85120    0.47580    1.000
    H6       H        0.75870    0.85780    0.47240    1.000
    H7       H        0.12670    0.15530    0.40060    1.000
    H8       H        0.10570    0.32520    0.47980    1.000
    H9       H        0.11700    0.49950    0.46140    1.000
    H10      H        0.20740    0.48620    0.15010    1.000
    H11      H        0.21790    0.31950    0.07260    1.000
    H12      H        0.20740    0.14490    0.09270    1.000
    H13      H        0.07910    0.94570    0.04110    1.000
    H14      H        0.04210    0.93890    0.88820    1.000
    H15      H        0.21100    0.67080    0.83910    1.000
    H16      H        0.22510    0.67330    0.00060    1.000
    H17      H        0.11490    0.97030    0.71000    1.000
    H18      H        0.10410    0.97100    0.54670    1.000
    H19      H        0.20430    0.68480    0.52390    1.000
    H20      H        0.23230    0.67910    0.68220    1.000
    C1       C        0.94810    0.83080    0.31720    1.000
    C2       C        0.83360    0.82880    0.31880    1.000
    C3       C        0.81210    0.81340    0.23110    1.000
    C4       C        0.70380    0.81170    0.22870    1.000
    C5       C        0.68400    0.79360    0.13860    1.000
    C6       C        0.57910    0.79340    0.13990    1.000
    C7       C        0.48780    0.80840    0.23140    1.000
    C8       C        0.51010    0.82370    0.31900    1.000
    C9       C        0.61570    0.82730    0.32200    1.000
    C10      C        0.63950    0.84250    0.41240    1.000
    C11      C        0.74500    0.84510    0.41100    1.000
    C12      C        0.37330    0.80930    0.23270    1.000
    C13      C        0.15990    0.01860    0.26160    1.000
    C14      C        0.16530    0.13290    0.25020    1.000
    C15      C        0.14450    0.18930    0.33420    1.000
    C16      C        0.14840    0.29560    0.32590    1.000
    C17      C        0.12580    0.35740    0.41240    1.000
    C18      C        0.13180    0.46050    0.40200    1.000
    C19      C        0.16030    0.51000    0.30240    1.000
    C20      C        0.18480    0.45300    0.21700    1.000
    C21      C        0.17700    0.34520    0.22680    1.000
    C22      C        0.19890    0.28690    0.13980    1.000
    C23      C        0.19270    0.18390    0.15200    1.000
    C24      C        0.16370    0.62340    0.29130    1.000
    C25      C        0.11470    0.89170    0.99590    1.000
    C26      C        0.09590    0.89110    0.90330    1.000
    C27      C        0.15870    0.81720    0.83070    1.000
    C28      C        0.19290    0.73330    0.87420    1.000
    C29      C        0.20240    0.73610    0.97110    1.000
    C30      C        0.14890    0.81950    0.72660    1.000
    C31      C        0.12640    0.90700    0.67700    1.000
    C32      C        0.11960    0.90700    0.57900    1.000
    C33      C        0.17920    0.74310    0.56530    1.000
    C34      C        0.19330    0.73750    0.66120    1.000
    N1       N        0.18290    0.81750    0.02550    1.000
    N2       N        0.13340    0.82400    0.52860    1.000
    O1       O        0.02340    0.82539    0.22994    1.000
    O2       O        0.96460    0.83744    0.40143    1.000
    O3       O        0.29810    0.81093    0.31790    1.000
    O4       O        0.35750    0.80850    0.14640    1.000
    O5       O        0.18220    0.97140    0.17849    1.000
    O6       O        0.13450    0.97822    0.35051    1.000
    O7       O        0.13640    0.67197    0.37354    1.000
    O8       O        0.19210    0.66542    0.20123    1.000
    Co3      Co       0.80514    0.18318    0.82998    1.000
    Co4      Co       0.87224    0.17448    0.61831    1.000
    H21      H        0.12770    0.19660    0.83110    1.000
    H22      H        0.25620    0.21840    0.92350    1.000
    H23      H        0.43370    0.21720    0.92240    1.000
    H24      H        0.55010    0.16760    0.61860    1.000
    H25      H        0.41940    0.14880    0.52420    1.000
    H26      H        0.24130    0.14220    0.52760    1.000
    H27      H        0.87330    0.84470    0.59940    1.000
    H28      H        0.89430    0.67480    0.52020    1.000
    H29      H        0.88300    0.50050    0.53860    1.000
    H30      H        0.79260    0.51380    0.84990    1.000
    H31      H        0.78210    0.68050    0.92740    1.000
    H32      H        0.79260    0.85510    0.90730    1.000
    H33      H        0.92090    0.05430    0.95890    1.000
    H34      H        0.95790    0.06110    0.11180    1.000
    H35      H        0.78900    0.32920    0.16090    1.000
    H36      H        0.77490    0.32670    0.99940    1.000
    H37      H        0.88510    0.02970    0.29000    1.000
    H38      H        0.89590    0.02900    0.45330    1.000
    H39      H        0.79570    0.31520    0.47610    1.000
    H40      H        0.76770    0.32090    0.31780    1.000
    C35      C        0.05190    0.16920    0.68280    1.000
    C36      C        0.16640    0.17120    0.68120    1.000
    C37      C        0.18790    0.18660    0.76890    1.000
    C38      C        0.29620    0.18830    0.77130    1.000
    C39      C        0.31600    0.20640    0.86140    1.000
    C40      C        0.42090    0.20660    0.86010    1.000
    C41      C        0.51220    0.19160    0.76860    1.000
    C42      C        0.48990    0.17630    0.68100    1.000
    C43      C        0.38430    0.17270    0.67800    1.000
    C44      C        0.36050    0.15750    0.58760    1.000
    C45      C        0.25500    0.15490    0.58900    1.000
    C46      C        0.62670    0.19070    0.76730    1.000
    C47      C        0.84010    0.98140    0.73840    1.000
    C48      C        0.83470    0.86710    0.74980    1.000
    C49      C        0.85550    0.81070    0.66580    1.000
    C50      C        0.85160    0.70440    0.67410    1.000
    C51      C        0.87420    0.64260    0.58760    1.000
    C52      C        0.86820    0.53950    0.59800    1.000
    C53      C        0.83970    0.49000    0.69760    1.000
    C54      C        0.81520    0.54700    0.78300    1.000
    C55      C        0.82300    0.65480    0.77320    1.000
    C56      C        0.80110    0.71310    0.86020    1.000
    C57      C        0.80730    0.81610    0.84800    1.000
    C58      C        0.83630    0.37660    0.70870    1.000
    C59      C        0.88530    0.10830    0.00410    1.000
    C60      C        0.90410    0.10890    0.09670    1.000
    C61      C        0.84130    0.18280    0.16930    1.000
    C62      C        0.80710    0.26670    0.12580    1.000
    C63      C        0.79760    0.26390    0.02890    1.000
    C64      C        0.85110    0.18050    0.27340    1.000
    C65      C        0.87360    0.09300    0.32300    1.000
    C66      C        0.88040    0.09300    0.42100    1.000
    C67      C        0.82080    0.25690    0.43470    1.000
    C68      C        0.80670    0.26250    0.33880    1.000
    N3       N        0.81710    0.18250    0.97450    1.000
    N4       N        0.86660    0.17600    0.47140    1.000
    O9       O        0.97660    0.17461    0.77006    1.000
    O10      O        0.03540    0.16256    0.59857    1.000
    O11      O        0.70190    0.18907    0.68210    1.000
    O12      O        0.64250    0.19150    0.85360    1.000
    O13      O        0.81780    0.02860    0.82151    1.000
    O14      O        0.86550    0.02178    0.64949    1.000
    O15      O        0.86360    0.32803    0.62646    1.000
    O16      O        0.80790    0.33458    0.79877    1.000
