# CIF file generated by openbabel 3.1.0, see https://openbabel.org
data_I
_chemical_name_common 'image0'
_cell_length_a 22.8973
_cell_length_b 26.5061
_cell_length_c 31.6472
_cell_angle_alpha 90
_cell_angle_beta 90
_cell_angle_gamma 90
_space_group_name_H-M_alt 'P 1'
_space_group_name_Hall 'P 1'
loop_
    _symmetry_equiv_pos_as_xyz
    x,y,z
loop_
    _atom_site_label
    _atom_site_type_symbol
    _atom_site_fract_x
    _atom_site_fract_y
    _atom_site_fract_z
    _atom_site_occupancy
    Zn1      Zn       0.71904    0.65640    0.68091    1.000
    Zn2      Zn       0.61665    0.71750    0.73333    1.000
    N1       N        0.93159    0.48878    0.75105    1.000
    H1       H        0.91250    0.46770    0.73570    1.000
    N2       N        0.76990    0.68724    0.45863    1.000
    H2       H        0.73710    0.67270    0.45360    1.000
    O1       O        0.80837    0.69005    0.75133    1.000
    O2       O        0.77390    0.62198    0.71739    1.000
    O3       O        0.15156    0.38986    0.81589    1.000
    O4       O        0.08576    0.35046    0.77479    1.000
    O5       O        0.80687    0.70321    0.64747    1.000
    O6       O        0.73446    0.65976    0.61990    1.000
    O7       O        0.79747    0.71150    0.29665    1.000
    O8       O        0.89244    0.72992    0.29341    1.000
    O9       O        0.69205    0.72106    0.70481    1.000
    H3       H        0.69210    0.74130    0.68940    1.000
    C1       C        0.81033    0.64433    0.74091    1.000
    C2       C        0.86072    0.61392    0.75705    1.000
    C3       C        0.90248    0.63655    0.78355    1.000
    H4       H        0.89760    0.66990    0.79200    1.000
    C4       C        0.95055    0.60986    0.79706    1.000
    H5       H        0.97830    0.62530    0.81420    1.000
    C5       C        0.95762    0.55970    0.78500    1.000
    C6       C        0.91539    0.53783    0.75906    1.000
    C7       C        0.86706    0.56449    0.74459    1.000
    H6       H        0.83970    0.54930    0.72700    1.000
    C8       C        0.00030    0.52188    0.79357    1.000
    C9       C        0.05067    0.52039    0.81725    1.000
    H7       H        0.06230    0.54830    0.83290    1.000
    C10      C        0.08354    0.47688    0.81740    1.000
    H8       H        0.11780    0.47600    0.83320    1.000
    C11      C        0.06722    0.43433    0.79470    1.000
    C12      C        0.01631    0.43509    0.77166    1.000
    H9       H        0.00430    0.40690    0.75650    1.000
    C13      C        0.98312    0.47912    0.77153    1.000
    C14      C        0.10481    0.38797    0.79526    1.000
    C15      C        0.77990    0.68677    0.61590    1.000
    C16      C        0.80129    0.69804    0.57274    1.000
    C17      C        0.85382    0.72417    0.56820    1.000
    H10      H        0.87420    0.73370    0.59240    1.000
    C18      C        0.87659    0.73636    0.52930    1.000
    H11      H        0.91160    0.75390    0.52710    1.000
    C19      C        0.84606    0.72179    0.49319    1.000
    C20      C        0.79226    0.69615    0.49822    1.000
    C21      C        0.77036    0.68446    0.53756    1.000
    H12      H        0.73500    0.66750    0.54020    1.000
    C22      C        0.85568    0.72742    0.44835    1.000
    C23      C        0.90014    0.74732    0.42440    1.000
    H13      H        0.93240    0.76180    0.43760    1.000
    C24      C        0.89700    0.74591    0.38112    1.000
    H14      H        0.92720    0.75940    0.36500    1.000
    C25      C        0.84799    0.72402    0.36098    1.000
    C26      C        0.80293    0.70449    0.38447    1.000
    H15      H        0.77000    0.69120    0.37140    1.000
    C27      C        0.80769    0.70509    0.42816    1.000
    C28      C        0.84531    0.72181    0.31382    1.000
    Zn3      Zn       0.78096    0.84360    0.68091    1.000
    Zn4      Zn       0.88335    0.78250    0.73333    1.000
    N3       N        0.56841    0.01122    0.75105    1.000
    H16      H        0.58750    0.03230    0.73570    1.000
    N4       N        0.73010    0.81276    0.45863    1.000
    H17      H        0.76290    0.82730    0.45360    1.000
    O10      O        0.69163    0.80995    0.75133    1.000
    O11      O        0.72610    0.87802    0.71739    1.000
    O12      O        0.34844    0.11014    0.81589    1.000
    O13      O        0.41424    0.14954    0.77479    1.000
    O14      O        0.69313    0.79679    0.64747    1.000
    O15      O        0.76554    0.84024    0.61990    1.000
    O16      O        0.70253    0.78850    0.29665    1.000
    O17      O        0.60756    0.77008    0.29341    1.000
    O18      O        0.80795    0.77894    0.70481    1.000
    H18      H        0.80790    0.75870    0.68940    1.000
    C29      C        0.68967    0.85567    0.74091    1.000
    C30      C        0.63928    0.88608    0.75705    1.000
    C31      C        0.59752    0.86345    0.78355    1.000
    H19      H        0.60240    0.83010    0.79200    1.000
    C32      C        0.54945    0.89014    0.79706    1.000
    H20      H        0.52170    0.87470    0.81420    1.000
    C33      C        0.54238    0.94030    0.78500    1.000
    C34      C        0.58461    0.96217    0.75906    1.000
    C35      C        0.63294    0.93551    0.74459    1.000
    H21      H        0.66030    0.95070    0.72700    1.000
    C36      C        0.49970    0.97812    0.79357    1.000
    C37      C        0.44933    0.97961    0.81725    1.000
    H22      H        0.43770    0.95170    0.83290    1.000
    C38      C        0.41646    0.02312    0.81740    1.000
    H23      H        0.38220    0.02400    0.83320    1.000
    C39      C        0.43278    0.06567    0.79470    1.000
    C40      C        0.48369    0.06491    0.77166    1.000
    H24      H        0.49570    0.09310    0.75650    1.000
    C41      C        0.51688    0.02088    0.77153    1.000
    C42      C        0.39519    0.11203    0.79526    1.000
    C43      C        0.72010    0.81323    0.61590    1.000
    C44      C        0.69871    0.80196    0.57274    1.000
    C45      C        0.64618    0.77583    0.56820    1.000
    H25      H        0.62580    0.76630    0.59240    1.000
    C46      C        0.62341    0.76364    0.52930    1.000
    H26      H        0.58840    0.74610    0.52710    1.000
    C47      C        0.65394    0.77821    0.49319    1.000
    C48      C        0.70774    0.80385    0.49822    1.000
    C49      C        0.72964    0.81554    0.53756    1.000
    H27      H        0.76500    0.83250    0.54020    1.000
    C50      C        0.64432    0.77258    0.44835    1.000
    C51      C        0.59986    0.75268    0.42440    1.000
    H28      H        0.56760    0.73820    0.43760    1.000
    C52      C        0.60300    0.75409    0.38112    1.000
    H29      H        0.57280    0.74060    0.36500    1.000
    C53      C        0.65201    0.77598    0.36098    1.000
    C54      C        0.69707    0.79551    0.38447    1.000
    H30      H        0.73000    0.80880    0.37140    1.000
    C55      C        0.69231    0.79491    0.42816    1.000
    C56      C        0.65469    0.77819    0.31382    1.000
    Zn5      Zn       0.28096    0.15640    0.81909    1.000
    Zn6      Zn       0.38335    0.21750    0.76667    1.000
    N5       N        0.06841    0.98878    0.74895    1.000
    H31      H        0.08750    0.96770    0.76430    1.000
    N6       N        0.23010    0.18724    0.04137    1.000
    H32      H        0.26290    0.17270    0.04640    1.000
    O19      O        0.19163    0.19005    0.74867    1.000
    O20      O        0.22610    0.12198    0.78261    1.000
    O21      O        0.84844    0.88986    0.68411    1.000
    O22      O        0.91424    0.85046    0.72521    1.000
    O23      O        0.19313    0.20321    0.85253    1.000
    O24      O        0.26554    0.15976    0.88010    1.000
    O25      O        0.20253    0.21150    0.20335    1.000
    O26      O        0.10756    0.22992    0.20659    1.000
    O27      O        0.30795    0.22106    0.79519    1.000
    H33      H        0.30790    0.24130    0.81060    1.000
    C57      C        0.18967    0.14433    0.75909    1.000
    C58      C        0.13928    0.11392    0.74295    1.000
    C59      C        0.09752    0.13655    0.71645    1.000
    H34      H        0.10240    0.16990    0.70800    1.000
    C60      C        0.04945    0.10986    0.70294    1.000
    H35      H        0.02170    0.12530    0.68580    1.000
    C61      C        0.04238    0.05970    0.71500    1.000
    C62      C        0.08461    0.03783    0.74094    1.000
    C63      C        0.13294    0.06449    0.75541    1.000
    H36      H        0.16030    0.04930    0.77300    1.000
    C64      C        0.99970    0.02188    0.70643    1.000
    C65      C        0.94933    0.02039    0.68275    1.000
    H37      H        0.93770    0.04830    0.66710    1.000
    C66      C        0.91646    0.97688    0.68260    1.000
    H38      H        0.88220    0.97600    0.66680    1.000
    C67      C        0.93278    0.93433    0.70530    1.000
    C68      C        0.98369    0.93509    0.72834    1.000
    H39      H        0.99570    0.90690    0.74350    1.000
    C69      C        0.01688    0.97912    0.72847    1.000
    C70      C        0.89519    0.88797    0.70474    1.000
    C71      C        0.22010    0.18677    0.88410    1.000
    C72      C        0.19871    0.19804    0.92726    1.000
    C73      C        0.14618    0.22417    0.93180    1.000
    H40      H        0.12580    0.23370    0.90760    1.000
    C74      C        0.12341    0.23636    0.97070    1.000
    H41      H        0.08840    0.25390    0.97290    1.000
    C75      C        0.15394    0.22179    0.00681    1.000
    C76      C        0.20774    0.19615    0.00178    1.000
    C77      C        0.22964    0.18446    0.96244    1.000
    H42      H        0.26500    0.16750    0.95980    1.000
    C78      C        0.14432    0.22742    0.05165    1.000
    C79      C        0.09986    0.24732    0.07560    1.000
    H43      H        0.06760    0.26180    0.06240    1.000
    C80      C        0.10300    0.24591    0.11888    1.000
    H44      H        0.07280    0.25940    0.13500    1.000
    C81      C        0.15201    0.22402    0.13902    1.000
    C82      C        0.19707    0.20449    0.11553    1.000
    H45      H        0.23000    0.19120    0.12860    1.000
    C83      C        0.19231    0.20509    0.07184    1.000
    C84      C        0.15469    0.22181    0.18618    1.000
    Zn7      Zn       0.21904    0.34360    0.81909    1.000
    Zn8      Zn       0.11665    0.28250    0.76667    1.000
    N7       N        0.43159    0.51122    0.74895    1.000
    H46      H        0.41250    0.53230    0.76430    1.000
    N8       N        0.26990    0.31276    0.04137    1.000
    H47      H        0.23710    0.32730    0.04640    1.000
    O28      O        0.30837    0.30995    0.74867    1.000
    O29      O        0.27390    0.37802    0.78261    1.000
    O30      O        0.65156    0.61014    0.68411    1.000
    O31      O        0.58576    0.64954    0.72521    1.000
    O32      O        0.30687    0.29679    0.85253    1.000
    O33      O        0.23446    0.34024    0.88010    1.000
    O34      O        0.29747    0.28850    0.20335    1.000
    O35      O        0.39244    0.27008    0.20659    1.000
    O36      O        0.19205    0.27894    0.79519    1.000
    H48      H        0.19210    0.25870    0.81060    1.000
    C85      C        0.31033    0.35567    0.75909    1.000
    C86      C        0.36072    0.38608    0.74295    1.000
    C87      C        0.40248    0.36345    0.71645    1.000
    H49      H        0.39760    0.33010    0.70800    1.000
    C88      C        0.45055    0.39014    0.70294    1.000
    H50      H        0.47830    0.37470    0.68580    1.000
    C89      C        0.45762    0.44030    0.71500    1.000
    C90      C        0.41539    0.46217    0.74094    1.000
    C91      C        0.36706    0.43551    0.75541    1.000
    H51      H        0.33970    0.45070    0.77300    1.000
    C92      C        0.50030    0.47812    0.70643    1.000
    C93      C        0.55067    0.47961    0.68275    1.000
    H52      H        0.56230    0.45170    0.66710    1.000
    C94      C        0.58354    0.52312    0.68260    1.000
    H53      H        0.61780    0.52400    0.66680    1.000
    C95      C        0.56722    0.56567    0.70530    1.000
    C96      C        0.51631    0.56491    0.72834    1.000
    H54      H        0.50430    0.59310    0.74350    1.000
    C97      C        0.48312    0.52088    0.72847    1.000
    C98      C        0.60481    0.61203    0.70474    1.000
    C99      C        0.27990    0.31323    0.88410    1.000
    C100     C        0.30129    0.30196    0.92726    1.000
    C101     C        0.35382    0.27583    0.93180    1.000
    H55      H        0.37420    0.26630    0.90760    1.000
    C102     C        0.37659    0.26364    0.97070    1.000
    H56      H        0.41160    0.24610    0.97290    1.000
    C103     C        0.34606    0.27821    0.00681    1.000
    C104     C        0.29226    0.30385    0.00178    1.000
    C105     C        0.27036    0.31554    0.96244    1.000
    H57      H        0.23500    0.33250    0.95980    1.000
    C106     C        0.35568    0.27258    0.05165    1.000
    C107     C        0.40014    0.25268    0.07560    1.000
    H58      H        0.43240    0.23820    0.06240    1.000
    C108     C        0.39700    0.25409    0.11888    1.000
    H59      H        0.42720    0.24060    0.13500    1.000
    C109     C        0.34799    0.27598    0.13902    1.000
    C110     C        0.30293    0.29551    0.11553    1.000
    H60      H        0.27000    0.30880    0.12860    1.000
    C111     C        0.30769    0.29491    0.07184    1.000
    C112     C        0.34531    0.27819    0.18618    1.000
    Zn9      Zn       0.28096    0.34360    0.31909    1.000
    Zn10     Zn       0.38335    0.28250    0.26667    1.000
    N9       N        0.06841    0.51122    0.24895    1.000
    H61      H        0.08750    0.53230    0.26430    1.000
    N10      N        0.23010    0.31276    0.54137    1.000
    H62      H        0.26290    0.32730    0.54640    1.000
    O37      O        0.19163    0.30995    0.24867    1.000
    O38      O        0.22610    0.37802    0.28261    1.000
    O39      O        0.84844    0.61014    0.18411    1.000
    O40      O        0.91424    0.64954    0.22521    1.000
    O41      O        0.19313    0.29679    0.35253    1.000
    O42      O        0.26554    0.34024    0.38010    1.000
    O43      O        0.20253    0.28850    0.70335    1.000
    O44      O        0.10756    0.27008    0.70659    1.000
    O45      O        0.30795    0.27894    0.29519    1.000
    H63      H        0.30790    0.25870    0.31060    1.000
    C113     C        0.18967    0.35567    0.25909    1.000
    C114     C        0.13928    0.38608    0.24295    1.000
    C115     C        0.09752    0.36345    0.21645    1.000
    H64      H        0.10240    0.33010    0.20800    1.000
    C116     C        0.04945    0.39014    0.20294    1.000
    H65      H        0.02170    0.37470    0.18580    1.000
    C117     C        0.04238    0.44030    0.21500    1.000
    C118     C        0.08461    0.46217    0.24094    1.000
    C119     C        0.13294    0.43551    0.25541    1.000
    H66      H        0.16030    0.45070    0.27300    1.000
    C120     C        0.99970    0.47812    0.20643    1.000
    C121     C        0.94933    0.47961    0.18275    1.000
    H67      H        0.93770    0.45170    0.16710    1.000
    C122     C        0.91646    0.52312    0.18260    1.000
    H68      H        0.88220    0.52400    0.16680    1.000
    C123     C        0.93278    0.56567    0.20530    1.000
    C124     C        0.98369    0.56491    0.22834    1.000
    H69      H        0.99570    0.59310    0.24350    1.000
    C125     C        0.01688    0.52088    0.22847    1.000
    C126     C        0.89519    0.61203    0.20474    1.000
    C127     C        0.22010    0.31323    0.38410    1.000
    C128     C        0.19871    0.30196    0.42726    1.000
    C129     C        0.14618    0.27583    0.43180    1.000
    H70      H        0.12580    0.26630    0.40760    1.000
    C130     C        0.12341    0.26364    0.47070    1.000
    H71      H        0.08840    0.24610    0.47290    1.000
    C131     C        0.15394    0.27821    0.50681    1.000
    C132     C        0.20774    0.30385    0.50178    1.000
    C133     C        0.22964    0.31554    0.46244    1.000
    H72      H        0.26500    0.33250    0.45980    1.000
    C134     C        0.14432    0.27258    0.55165    1.000
    C135     C        0.09986    0.25268    0.57560    1.000
    H73      H        0.06760    0.23820    0.56240    1.000
    C136     C        0.10300    0.25409    0.61888    1.000
    H74      H        0.07280    0.24060    0.63500    1.000
    C137     C        0.15201    0.27598    0.63902    1.000
    C138     C        0.19707    0.29551    0.61553    1.000
    H75      H        0.23000    0.30880    0.62860    1.000
    C139     C        0.19231    0.29491    0.57184    1.000
    C140     C        0.15469    0.27819    0.68618    1.000
    Zn11     Zn       0.21904    0.15640    0.31909    1.000
    Zn12     Zn       0.11665    0.21750    0.26667    1.000
    N11      N        0.43159    0.98878    0.24895    1.000
    H76      H        0.41250    0.96770    0.26430    1.000
    N12      N        0.26990    0.18724    0.54137    1.000
    H77      H        0.23710    0.17270    0.54640    1.000
    O46      O        0.30837    0.19005    0.24867    1.000
    O47      O        0.27390    0.12198    0.28261    1.000
    O48      O        0.65156    0.88986    0.18411    1.000
    O49      O        0.58576    0.85046    0.22521    1.000
    O50      O        0.30687    0.20321    0.35253    1.000
    O51      O        0.23446    0.15976    0.38010    1.000
    O52      O        0.29747    0.21150    0.70335    1.000
    O53      O        0.39244    0.22992    0.70659    1.000
    O54      O        0.19205    0.22106    0.29519    1.000
    H78      H        0.19210    0.24130    0.31060    1.000
    C141     C        0.31033    0.14433    0.25909    1.000
    C142     C        0.36072    0.11392    0.24295    1.000
    C143     C        0.40248    0.13655    0.21645    1.000
    H79      H        0.39760    0.16990    0.20800    1.000
    C144     C        0.45055    0.10986    0.20294    1.000
    H80      H        0.47830    0.12530    0.18580    1.000
    C145     C        0.45762    0.05970    0.21500    1.000
    C146     C        0.41539    0.03783    0.24094    1.000
    C147     C        0.36706    0.06449    0.25541    1.000
    H81      H        0.33970    0.04930    0.27300    1.000
    C148     C        0.50030    0.02188    0.20643    1.000
    C149     C        0.55067    0.02039    0.18275    1.000
    H82      H        0.56230    0.04830    0.16710    1.000
    C150     C        0.58354    0.97688    0.18260    1.000
    H83      H        0.61780    0.97600    0.16680    1.000
    C151     C        0.56722    0.93433    0.20530    1.000
    C152     C        0.51631    0.93509    0.22834    1.000
    H84      H        0.50430    0.90690    0.24350    1.000
    C153     C        0.48312    0.97912    0.22847    1.000
    C154     C        0.60481    0.88797    0.20474    1.000
    C155     C        0.27990    0.18677    0.38410    1.000
    C156     C        0.30129    0.19804    0.42726    1.000
    C157     C        0.35382    0.22417    0.43180    1.000
    H85      H        0.37420    0.23370    0.40760    1.000
    C158     C        0.37659    0.23636    0.47070    1.000
    H86      H        0.41160    0.25390    0.47290    1.000
    C159     C        0.34606    0.22179    0.50681    1.000
    C160     C        0.29226    0.19615    0.50178    1.000
    C161     C        0.27036    0.18446    0.46244    1.000
    H87      H        0.23500    0.16750    0.45980    1.000
    C162     C        0.35568    0.22742    0.55165    1.000
    C163     C        0.40014    0.24732    0.57560    1.000
    H88      H        0.43240    0.26180    0.56240    1.000
    C164     C        0.39700    0.24591    0.61888    1.000
    H89      H        0.42720    0.25940    0.63500    1.000
    C165     C        0.34799    0.22402    0.63902    1.000
    C166     C        0.30293    0.20449    0.61553    1.000
    H90      H        0.27000    0.19120    0.62860    1.000
    C167     C        0.30769    0.20509    0.57184    1.000
    C168     C        0.34531    0.22181    0.68618    1.000
    Zn13     Zn       0.71904    0.84360    0.18091    1.000
    Zn14     Zn       0.61665    0.78250    0.23333    1.000
    N13      N        0.93159    0.01122    0.25105    1.000
    H91      H        0.91250    0.03230    0.23570    1.000
    N14      N        0.76990    0.81276    0.95863    1.000
    H92      H        0.73710    0.82730    0.95360    1.000
    O55      O        0.80837    0.80995    0.25133    1.000
    O56      O        0.77390    0.87802    0.21739    1.000
    O57      O        0.15156    0.11014    0.31589    1.000
    O58      O        0.08576    0.14954    0.27479    1.000
    O59      O        0.80687    0.79679    0.14747    1.000
    O60      O        0.73446    0.84024    0.11990    1.000
    O61      O        0.79747    0.78850    0.79665    1.000
    O62      O        0.89244    0.77008    0.79341    1.000
    O63      O        0.69205    0.77894    0.20481    1.000
    H93      H        0.69210    0.75870    0.18940    1.000
    C169     C        0.81033    0.85567    0.24091    1.000
    C170     C        0.86072    0.88608    0.25705    1.000
    C171     C        0.90248    0.86345    0.28355    1.000
    H94      H        0.89760    0.83010    0.29200    1.000
    C172     C        0.95055    0.89014    0.29706    1.000
    H95      H        0.97830    0.87470    0.31420    1.000
    C173     C        0.95762    0.94030    0.28500    1.000
    C174     C        0.91539    0.96217    0.25906    1.000
    C175     C        0.86706    0.93551    0.24459    1.000
    H96      H        0.83970    0.95070    0.22700    1.000
    C176     C        0.00030    0.97812    0.29357    1.000
    C177     C        0.05067    0.97961    0.31725    1.000
    H97      H        0.06230    0.95170    0.33290    1.000
    C178     C        0.08354    0.02312    0.31740    1.000
    H98      H        0.11780    0.02400    0.33320    1.000
    C179     C        0.06722    0.06567    0.29470    1.000
    C180     C        0.01631    0.06491    0.27166    1.000
    H99      H        0.00430    0.09310    0.25650    1.000
    C181     C        0.98312    0.02088    0.27153    1.000
    C182     C        0.10481    0.11203    0.29526    1.000
    C183     C        0.77990    0.81323    0.11590    1.000
    C184     C        0.80129    0.80196    0.07274    1.000
    C185     C        0.85382    0.77583    0.06820    1.000
    H100     H        0.87420    0.76630    0.09240    1.000
    C186     C        0.87659    0.76364    0.02930    1.000
    H101     H        0.91160    0.74610    0.02710    1.000
    C187     C        0.84606    0.77821    0.99319    1.000
    C188     C        0.79226    0.80385    0.99822    1.000
    C189     C        0.77036    0.81554    0.03756    1.000
    H102     H        0.73500    0.83250    0.04020    1.000
    C190     C        0.85568    0.77258    0.94835    1.000
    C191     C        0.90014    0.75268    0.92440    1.000
    H103     H        0.93240    0.73820    0.93760    1.000
    C192     C        0.89700    0.75409    0.88112    1.000
    H104     H        0.92720    0.74060    0.86500    1.000
    C193     C        0.84799    0.77598    0.86098    1.000
    C194     C        0.80293    0.79551    0.88447    1.000
    H105     H        0.77000    0.80880    0.87140    1.000
    C195     C        0.80769    0.79491    0.92816    1.000
    C196     C        0.84531    0.77819    0.81382    1.000
    Zn15     Zn       0.78096    0.65640    0.18091    1.000
    Zn16     Zn       0.88335    0.71750    0.23333    1.000
    N15      N        0.56841    0.48878    0.25105    1.000
    H106     H        0.58750    0.46770    0.23570    1.000
    N16      N        0.73010    0.68724    0.95863    1.000
    H107     H        0.76290    0.67270    0.95360    1.000
    O64      O        0.69163    0.69005    0.25133    1.000
    O65      O        0.72610    0.62198    0.21739    1.000
    O66      O        0.34844    0.38986    0.31589    1.000
    O67      O        0.41424    0.35046    0.27479    1.000
    O68      O        0.69313    0.70321    0.14747    1.000
    O69      O        0.76554    0.65976    0.11990    1.000
    O70      O        0.70253    0.71150    0.79665    1.000
    O71      O        0.60756    0.72992    0.79341    1.000
    O72      O        0.80795    0.72106    0.20481    1.000
    H108     H        0.80790    0.74130    0.18940    1.000
    C197     C        0.68967    0.64433    0.24091    1.000
    C198     C        0.63928    0.61392    0.25705    1.000
    C199     C        0.59752    0.63655    0.28355    1.000
    H109     H        0.60240    0.66990    0.29200    1.000
    C200     C        0.54945    0.60986    0.29706    1.000
    H110     H        0.52170    0.62530    0.31420    1.000
    C201     C        0.54238    0.55970    0.28500    1.000
    C202     C        0.58461    0.53783    0.25906    1.000
    C203     C        0.63294    0.56449    0.24459    1.000
    H111     H        0.66030    0.54930    0.22700    1.000
    C204     C        0.49970    0.52188    0.29357    1.000
    C205     C        0.44933    0.52039    0.31725    1.000
    H112     H        0.43770    0.54830    0.33290    1.000
    C206     C        0.41646    0.47688    0.31740    1.000
    H113     H        0.38220    0.47600    0.33320    1.000
    C207     C        0.43278    0.43433    0.29470    1.000
    C208     C        0.48369    0.43509    0.27166    1.000
    H114     H        0.49570    0.40690    0.25650    1.000
    C209     C        0.51688    0.47912    0.27153    1.000
    C210     C        0.39519    0.38797    0.29526    1.000
    C211     C        0.72010    0.68677    0.11590    1.000
    C212     C        0.69871    0.69804    0.07274    1.000
    C213     C        0.64618    0.72417    0.06820    1.000
    H115     H        0.62580    0.73370    0.09240    1.000
    C214     C        0.62341    0.73636    0.02930    1.000
    H116     H        0.58840    0.75390    0.02710    1.000
    C215     C        0.65394    0.72179    0.99319    1.000
    C216     C        0.70774    0.69615    0.99822    1.000
    C217     C        0.72964    0.68446    0.03756    1.000
    H117     H        0.76500    0.66750    0.04020    1.000
    C218     C        0.64432    0.72742    0.94835    1.000
    C219     C        0.59986    0.74732    0.92440    1.000
    H118     H        0.56760    0.76180    0.93760    1.000
    C220     C        0.60300    0.74591    0.88112    1.000
    H119     H        0.57280    0.75940    0.86500    1.000
    C221     C        0.65201    0.72402    0.86098    1.000
    C222     C        0.69707    0.70449    0.88447    1.000
    H120     H        0.73000    0.69120    0.87140    1.000
    C223     C        0.69231    0.70509    0.92816    1.000
    C224     C        0.65469    0.72181    0.81382    1.000
    Zn17     Zn       0.75000    0.75000    0.75110    1.000
    Zn18     Zn       0.25000    0.25000    0.74890    1.000
    Zn19     Zn       0.25000    0.25000    0.24890    1.000
    Zn20     Zn       0.75000    0.75000    0.25110    1.000
