# CIF file generated by openbabel 3.1.0, see https://openbabel.org
data_I
_chemical_name_common 'CADQAB_clean'
_cell_length_a 10.406
_cell_length_b 11.062
_cell_length_c 12.407
_cell_angle_alpha 103.58
_cell_angle_beta 106.34
_cell_angle_gamma 98.73
_space_group_name_H-M_alt 'P 1'
_space_group_name_Hall 'P 1'
loop_
    _symmetry_equiv_pos_as_xyz
    x,y,z
loop_
    _atom_site_label
    _atom_site_type_symbol
    _atom_site_fract_x
    _atom_site_fract_y
    _atom_site_fract_z
    _atom_site_occupancy
    Pr1      Pr       0.09415    0.54426    0.68266    1.000
    Pr2      Pr       0.90585    0.45574    0.31734    1.000
    H1       H        0.27410    0.39430    0.24960    1.000
    H2       H        0.07560    0.88180    0.71070    1.000
    H3       H        0.00090    0.14760    0.66630    1.000
    H4       H        0.56550    0.82630    0.89930    1.000
    H5       H        0.38930    0.55760    0.63470    1.000
    H6       H        0.17660    0.93960    0.94680    1.000
    H7       H        0.72590    0.60570    0.75040    1.000
    H8       H        0.92440    0.11820    0.28930    1.000
    H9       H        0.99910    0.85240    0.33370    1.000
    H10      H        0.43450    0.17370    0.10070    1.000
    H11      H        0.61070    0.44240    0.36530    1.000
    H12      H        0.82340    0.06040    0.05320    1.000
    C1       C        0.00080    0.08810    0.59940    1.000
    C2       C        0.29420    0.77120    0.85270    1.000
    C3       C        0.35770    0.48150    0.46200    1.000
    C4       C        0.05570    0.75340    0.50870    1.000
    C5       C        0.53980    0.89560    0.93940    1.000
    C6       C        0.20490    0.46030    0.42570    1.000
    C7       C        0.40030    0.89030    0.92870    1.000
    C8       C        0.43400    0.53410    0.58070    1.000
    C9       C        0.02980    0.97230    0.60750    1.000
    C10      C        0.36180    0.99400    0.98910    1.000
    C11      C        0.42470    0.44820    0.38090    1.000
    C12      C        0.02880    0.88190    0.50660    1.000
    C13      C        0.99920    0.91190    0.40060    1.000
    C14      C        0.70580    0.22880    0.14730    1.000
    C15      C        0.64230    0.51850    0.53800    1.000
    C16      C        0.94430    0.24660    0.49130    1.000
    C17      C        0.46020    0.10440    0.06060    1.000
    C18      C        0.79510    0.53970    0.57430    1.000
    C19      C        0.59970    0.10970    0.07130    1.000
    C20      C        0.56600    0.46590    0.41930    1.000
    C21      C        0.97020    0.02770    0.39250    1.000
    C22      C        0.63820    0.00600    0.01090    1.000
    C23      C        0.57530    0.55180    0.61910    1.000
    C24      C        0.97120    0.11810    0.49340    1.000
    O1       O        0.17070    0.75910    0.85050    1.000
    O2       O        0.35660    0.39750    0.26300    1.000
    O3       O        0.05780    0.95210    0.71510    1.000
    O4       O        0.13640    0.42260    0.31610    1.000
    O5       O        0.14480    0.48060    0.50070    1.000
    O6       O        0.09300    0.73310    0.60790    1.000
    O7       O        0.33070    0.68220    0.79140    1.000
    O8       O        0.03990    0.67320    0.41170    1.000
    O9       O        0.23250    0.00740    0.98540    1.000
    O10      O        0.82930    0.24090    0.14950    1.000
    O11      O        0.64340    0.60250    0.73700    1.000
    O12      O        0.94220    0.04790    0.28490    1.000
    O13      O        0.86360    0.57740    0.68390    1.000
    O14      O        0.85520    0.51940    0.49930    1.000
    O15      O        0.90700    0.26690    0.39210    1.000
    O16      O        0.66930    0.31780    0.20860    1.000
    O17      O        0.96010    0.32680    0.58830    1.000
    O18      O        0.76750    0.99260    0.01460    1.000
