# CIF file generated by openbabel 3.1.0, see https://openbabel.org
data_I
_chemical_name_common 'image0'
_cell_length_a 9.4617
_cell_length_b 11.2772
_cell_length_c 11.3489
_cell_angle_alpha 79.254
_cell_angle_beta 65.726
_cell_angle_gamma 80.143
_space_group_name_H-M_alt 'P 1'
_space_group_name_Hall 'P 1'
loop_
    _symmetry_equiv_pos_as_xyz
    x,y,z
loop_
    _atom_site_label
    _atom_site_type_symbol
    _atom_site_fract_x
    _atom_site_fract_y
    _atom_site_fract_z
    _atom_site_occupancy
    U1       U        0.69850    0.44431    0.04771    1.000
    U2       U        0.27962    0.96850    0.02627    1.000
    P1       P        0.63460    0.61900    0.75960    1.000
    P2       P        0.55210    0.75080    0.98430    1.000
    P3       P        0.01190    0.20630    0.95680    1.000
    O1       O        0.38060    0.73770    0.00890    1.000
    O2       O        0.62210    0.65320    0.06040    1.000
    O3       O        0.20370    0.50940    0.81840    1.000
    P4       P        0.08360    0.46050    0.78650    1.000
    O4       O        0.54450    0.88040    0.01510    1.000
    O5       O        0.91560    0.49960    0.87350    1.000
    O6       O        0.61000    0.51670    0.87550    1.000
    O7       O        0.88010    0.28620    0.04590    1.000
    O8       O        0.12560    0.14570    0.02030    1.000
    O9       O        0.47490    0.64570    0.74940    1.000
    O10      O        0.94610    0.11370    0.91840    1.000
    O11      O        0.76690    0.59400    0.63320    1.000
    O12      O        0.11110    0.50430    0.64510    1.000
    C1       C        0.67090    0.74800    0.81300    1.000
    H1       H        0.78020    0.74220    0.79820    1.000
    H2       H        0.64610    0.82240    0.76340    1.000
    C2       C        0.11510    0.29930    0.80330    1.000
    H3       H        0.22580    0.27740    0.78190    1.000
    H4       H        0.09230    0.27380    0.73650    1.000
    U3       U        0.30150    0.55569    0.95229    1.000
    U4       U        0.72038    0.03150    0.97373    1.000
    P5       P        0.36540    0.38100    0.24040    1.000
    P6       P        0.44790    0.24920    0.01570    1.000
    P7       P        0.98810    0.79370    0.04320    1.000
    O13      O        0.61940    0.26230    0.99110    1.000
    O14      O        0.37790    0.34680    0.93960    1.000
    O15      O        0.79630    0.49060    0.18160    1.000
    P8       P        0.91640    0.53950    0.21350    1.000
    O16      O        0.45550    0.11960    0.98490    1.000
    O17      O        0.08440    0.50040    0.12650    1.000
    O18      O        0.39000    0.48330    0.12450    1.000
    O19      O        0.11990    0.71380    0.95410    1.000
    O20      O        0.87440    0.85430    0.97970    1.000
    O21      O        0.52510    0.35430    0.25060    1.000
    O22      O        0.05390    0.88630    0.08160    1.000
    O23      O        0.23310    0.40600    0.36680    1.000
    O24      O        0.88890    0.49570    0.35490    1.000
    C3       C        0.32910    0.25200    0.18700    1.000
    H5       H        0.21980    0.25780    0.20180    1.000
    H6       H        0.35390    0.17760    0.23660    1.000
    C4       C        0.88490    0.70070    0.19670    1.000
    H7       H        0.77420    0.72260    0.21810    1.000
    H8       H        0.90770    0.72620    0.26350    1.000
    U5       U        0.00000    0.50000    0.50000    1.000
