# CIF file generated by openbabel 3.1.0, see https://openbabel.org
data_I
_chemical_name_common 'image0'
_cell_length_a 8.673
_cell_length_b 9.411
_cell_length_c 10.048
_cell_angle_alpha 63.708
_cell_angle_beta 76.113
_cell_angle_gamma 75.45
_space_group_name_H-M_alt 'P 1'
_space_group_name_Hall 'P 1'
loop_
    _symmetry_equiv_pos_as_xyz
    x,y,z
loop_
    _atom_site_label
    _atom_site_type_symbol
    _atom_site_fract_x
    _atom_site_fract_y
    _atom_site_fract_z
    _atom_site_occupancy
    Nd1      Nd       0.32980    0.36454    0.84235    1.000
    O1       O        0.08080    0.30240    0.02170    1.000
    O2       O        0.32620    0.07940    0.91760    1.000
    O3       O        0.52810    0.30940    0.64360    1.000
    O4       O        0.52970    0.52440    0.81230    1.000
    O5       O        0.43550    0.82280    0.03710    1.000
    O6       O        0.86180    0.39720    0.14990    1.000
    O7       O        0.65960    0.60730    0.92550    1.000
    O8       O        0.66200    0.40710    0.40790    1.000
    C1       C        0.98400    0.41090    0.05000    1.000
    C2       C        0.42990    0.97370    0.98610    1.000
    C3       C        0.55550    0.41830    0.51480    1.000
    C4       C        0.55520    0.53870    0.92380    1.000
    Nd2      Nd       0.67020    0.63546    0.15765    1.000
    O9       O        0.91920    0.69760    0.97830    1.000
    O10      O        0.67380    0.92060    0.08240    1.000
    O11      O        0.47190    0.69060    0.35640    1.000
    O12      O        0.47030    0.47560    0.18770    1.000
    O13      O        0.56450    0.17720    0.96290    1.000
    O14      O        0.13820    0.60280    0.85010    1.000
    O15      O        0.34040    0.39270    0.07450    1.000
    O16      O        0.33800    0.59290    0.59210    1.000
    C5       C        0.01600    0.58910    0.95000    1.000
    C6       C        0.57010    0.02630    0.01390    1.000
    C7       C        0.44450    0.58170    0.48520    1.000
    C8       C        0.44480    0.46130    0.07620    1.000
