# CIF file generated by openbabel 3.1.0, see https://openbabel.org
data_I
_chemical_name_common 'image0'
_cell_length_a 8.254
_cell_length_b 18.896
_cell_length_c 18.006
_cell_angle_alpha 90
_cell_angle_beta 90
_cell_angle_gamma 90
_space_group_name_H-M_alt 'P 1'
_space_group_name_Hall 'P 1'
loop_
    _symmetry_equiv_pos_as_xyz
    x,y,z
loop_
    _atom_site_label
    _atom_site_type_symbol
    _atom_site_fract_x
    _atom_site_fract_y
    _atom_site_fract_z
    _atom_site_occupancy
    Cd1      Cd       0.51269    0.97273    0.90663    1.000
    O1       O        0.37320    0.36390    0.93880    1.000
    O2       O        0.21480    0.44260    0.88230    1.000
    O3       O        0.75830    0.00160    0.43390    1.000
    O4       O        0.58680    0.01100    0.52800    1.000
    N1       N        0.57510    0.08890    0.89900    1.000
    N2       N        0.70680    0.18890    0.91280    1.000
    N3       N        0.54390    0.20510    0.91980    1.000
    N4       N        0.41840    0.94120    0.79400    1.000
    N5       N        0.25490    0.93740    0.69680    1.000
    N6       N        0.38460    0.89200    0.68190    1.000
    C1       C        0.46270    0.14190    0.91210    1.000
    H1       H        0.35110    0.13590    0.91510    1.000
    C2       C        0.71910    0.11850    0.89940    1.000
    H2       H        0.81600    0.09460    0.89150    1.000
    C3       C        0.83850    0.23750    0.91420    1.000
    C4       C        0.98680    0.21680    0.94510    1.000
    H3       H        0.99850    0.17200    0.96580    1.000
    C5       C        0.11580    0.26360    0.94450    1.000
    H4       H        0.21580    0.24940    0.96300    1.000
    C6       C        0.09750    0.33190    0.91630    1.000
    C7       C        0.94680    0.35250    0.88770    1.000
    H5       H        0.93360    0.39780    0.86850    1.000
    C8       C        0.81670    0.30560    0.88780    1.000
    H6       H        0.71590    0.31990    0.87020    1.000
    C9       C        0.23700    0.38280    0.91180    1.000
    C10      C        0.48540    0.89470    0.74210    1.000
    H7       H        0.58200    0.86990    0.74750    1.000
    C11      C        0.28260    0.96480    0.76550    1.000
    H8       H        0.21370    0.99640    0.78930    1.000
    C12      C        0.12200    0.95220    0.64890    1.000
    C13      C        0.15290    0.96390    0.57410    1.000
    H9       H        0.25800    0.96130    0.55560    1.000
    C14      C        0.02340    0.97970    0.52690    1.000
    H10      H        0.04240    0.98740    0.47670    1.000
    C15      C        0.86600    0.98390    0.55450    1.000
    C16      C        0.83880    0.97290    0.63010    1.000
    H11      H        0.73390    0.97600    0.64870    1.000
    C17      C        0.96610    0.95720    0.67830    1.000
    H12      H        0.94760    0.95020    0.72870    1.000
    C18      C        0.72750    0.99980    0.50270    1.000
    Cd2      Cd       0.48731    0.02727    0.40663    1.000
    O5       O        0.62680    0.63610    0.43880    1.000
    O6       O        0.78520    0.55740    0.38230    1.000
    O7       O        0.24170    0.99840    0.93390    1.000
    O8       O        0.41320    0.98900    0.02800    1.000
    N7       N        0.42490    0.91110    0.39900    1.000
    N8       N        0.29320    0.81110    0.41280    1.000
    N9       N        0.45610    0.79490    0.41980    1.000
    N10      N        0.58160    0.05880    0.29400    1.000
    N11      N        0.74510    0.06260    0.19680    1.000
    N12      N        0.61540    0.10800    0.18190    1.000
    C19      C        0.53730    0.85810    0.41210    1.000
    H13      H        0.64890    0.86410    0.41510    1.000
    C20      C        0.28090    0.88150    0.39940    1.000
    H14      H        0.18400    0.90540    0.39150    1.000
    C21      C        0.16150    0.76250    0.41420    1.000
    C22      C        0.01320    0.78320    0.44510    1.000
    H15      H        0.00150    0.82800    0.46580    1.000
    C23      C        0.88420    0.73640    0.44450    1.000
    H16      H        0.78420    0.75060    0.46300    1.000
    C24      C        0.90250    0.66810    0.41630    1.000
    C25      C        0.05320    0.64750    0.38770    1.000
    H17      H        0.06640    0.60220    0.36850    1.000
    C26      C        0.18330    0.69440    0.38780    1.000
    H18      H        0.28410    0.68010    0.37020    1.000
    C27      C        0.76300    0.61720    0.41180    1.000
    C28      C        0.51460    0.10530    0.24210    1.000
    H19      H        0.41800    0.13010    0.24750    1.000
    C29      C        0.71740    0.03520    0.26550    1.000
    H20      H        0.78630    0.00360    0.28930    1.000
    C30      C        0.87800    0.04780    0.14890    1.000
    C31      C        0.84710    0.03610    0.07410    1.000
    H21      H        0.74200    0.03870    0.05560    1.000
    C32      C        0.97660    0.02030    0.02690    1.000
    H22      H        0.95760    0.01260    0.97670    1.000
    C33      C        0.13400    0.01610    0.05450    1.000
    C34      C        0.16120    0.02710    0.13010    1.000
    H23      H        0.26610    0.02400    0.14870    1.000
    C35      C        0.03390    0.04280    0.17830    1.000
    H24      H        0.05240    0.04980    0.22870    1.000
    C36      C        0.27250    0.00020    0.00270    1.000
    Cd3      Cd       0.48731    0.47273    0.90663    1.000
    O9       O        0.62680    0.86390    0.93880    1.000
    O10      O        0.78520    0.94260    0.88230    1.000
    O11      O        0.24170    0.50160    0.43390    1.000
    O12      O        0.41320    0.51100    0.52800    1.000
    N13      N        0.42490    0.58890    0.89900    1.000
    N14      N        0.29320    0.68890    0.91280    1.000
    N15      N        0.45610    0.70510    0.91980    1.000
    N16      N        0.58160    0.44120    0.79400    1.000
    N17      N        0.74510    0.43740    0.69680    1.000
    N18      N        0.61540    0.39200    0.68190    1.000
    C37      C        0.53730    0.64190    0.91210    1.000
    H25      H        0.64890    0.63590    0.91510    1.000
    C38      C        0.28090    0.61850    0.89940    1.000
    H26      H        0.18400    0.59460    0.89150    1.000
    C39      C        0.16150    0.73750    0.91420    1.000
    C40      C        0.01320    0.71680    0.94510    1.000
    H27      H        0.00150    0.67200    0.96580    1.000
    C41      C        0.88420    0.76360    0.94450    1.000
    H28      H        0.78420    0.74940    0.96300    1.000
    C42      C        0.90250    0.83190    0.91630    1.000
    C43      C        0.05320    0.85250    0.88770    1.000
    H29      H        0.06640    0.89780    0.86850    1.000
    C44      C        0.18330    0.80560    0.88780    1.000
    H30      H        0.28410    0.81990    0.87020    1.000
    C45      C        0.76300    0.88280    0.91180    1.000
    C46      C        0.51460    0.39470    0.74210    1.000
    H31      H        0.41800    0.36990    0.74750    1.000
    C47      C        0.71740    0.46480    0.76550    1.000
    H32      H        0.78630    0.49640    0.78930    1.000
    C48      C        0.87800    0.45220    0.64890    1.000
    C49      C        0.84710    0.46390    0.57410    1.000
    H33      H        0.74200    0.46130    0.55560    1.000
    C50      C        0.97660    0.47970    0.52690    1.000
    H34      H        0.95760    0.48740    0.47670    1.000
    C51      C        0.13400    0.48390    0.55450    1.000
    C52      C        0.16120    0.47290    0.63010    1.000
    H35      H        0.26610    0.47600    0.64870    1.000
    C53      C        0.03390    0.45720    0.67830    1.000
    H36      H        0.05240    0.45020    0.72870    1.000
    C54      C        0.27250    0.49980    0.50270    1.000
    Cd4      Cd       0.51269    0.52727    0.40663    1.000
    O13      O        0.37320    0.13610    0.43880    1.000
    O14      O        0.21480    0.05740    0.38230    1.000
    O15      O        0.75830    0.49840    0.93390    1.000
    O16      O        0.58680    0.48900    0.02800    1.000
    N19      N        0.57510    0.41110    0.39900    1.000
    N20      N        0.70680    0.31110    0.41280    1.000
    N21      N        0.54390    0.29490    0.41980    1.000
    N22      N        0.41840    0.55880    0.29400    1.000
    N23      N        0.25490    0.56260    0.19680    1.000
    N24      N        0.38460    0.60800    0.18190    1.000
    C55      C        0.46270    0.35810    0.41210    1.000
    H37      H        0.35110    0.36410    0.41510    1.000
    C56      C        0.71910    0.38150    0.39940    1.000
    H38      H        0.81600    0.40540    0.39150    1.000
    C57      C        0.83850    0.26250    0.41420    1.000
    C58      C        0.98680    0.28320    0.44510    1.000
    H39      H        0.99850    0.32800    0.46580    1.000
    C59      C        0.11580    0.23640    0.44450    1.000
    H40      H        0.21580    0.25060    0.46300    1.000
    C60      C        0.09750    0.16810    0.41630    1.000
    C61      C        0.94680    0.14750    0.38770    1.000
    H41      H        0.93360    0.10220    0.36850    1.000
    C62      C        0.81670    0.19440    0.38780    1.000
    H42      H        0.71590    0.18010    0.37020    1.000
    C63      C        0.23700    0.11720    0.41180    1.000
    C64      C        0.48540    0.60530    0.24210    1.000
    H43      H        0.58200    0.63010    0.24750    1.000
    C65      C        0.28260    0.53520    0.26550    1.000
    H44      H        0.21370    0.50360    0.28930    1.000
    C66      C        0.12200    0.54780    0.14890    1.000
    C67      C        0.15290    0.53610    0.07410    1.000
    H45      H        0.25800    0.53870    0.05560    1.000
    C68      C        0.02340    0.52030    0.02690    1.000
    H46      H        0.04240    0.51260    0.97670    1.000
    C69      C        0.86600    0.51610    0.05450    1.000
    C70      C        0.83880    0.52710    0.13010    1.000
    H47      H        0.73390    0.52400    0.14870    1.000
    C71      C        0.96610    0.54280    0.17830    1.000
    H48      H        0.94760    0.54980    0.22870    1.000
    C72      C        0.72750    0.50020    0.00270    1.000
