# CIF file generated by openbabel 3.1.0, see https://openbabel.org
data_I
_chemical_name_common 'image0'
_cell_length_a 34.471
_cell_length_b 34.471
_cell_length_c 8.463
_cell_angle_alpha 90
_cell_angle_beta 90
_cell_angle_gamma 120
_space_group_name_H-M_alt 'P 1'
_space_group_name_Hall 'P 1'
loop_
    _symmetry_equiv_pos_as_xyz
    x,y,z
loop_
    _atom_site_label
    _atom_site_type_symbol
    _atom_site_fract_x
    _atom_site_fract_y
    _atom_site_fract_z
    _atom_site_occupancy
    Ag1      Ag       0.14570    0.31847    0.50522    1.000
    O1       O        0.33385    0.32890    0.75730    1.000
    N1       N        0.20490    0.33842    0.65500    1.000
    N2       N        0.27686    0.19766    0.60700    1.000
    C1       C        0.21891    0.37387    0.75080    1.000
    H1       H        0.20260    0.38870    0.75330    1.000
    C2       C        0.25570    0.38940    0.84460    1.000
    H2       H        0.26430    0.41420    0.90890    1.000
    C3       C        0.28020    0.36750    0.84300    1.000
    H3       H        0.30570    0.37760    0.90540    1.000
    C4       C        0.26623    0.33015    0.74650    1.000
    C5       C        0.22835    0.31697    0.65410    1.000
    H4       H        0.21880    0.29220    0.58870    1.000
    C6       C        0.29322    0.30746    0.73810    1.000
    C7       C        0.27085    0.25862    0.71090    1.000
    C8       C        0.22900    0.22910    0.77190    1.000
    H5       H        0.21270    0.23940    0.82720    1.000
    C9       C        0.21230    0.18390    0.74840    1.000
    H6       H        0.18450    0.16330    0.78970    1.000
    C10      C        0.23640    0.16980    0.66510    1.000
    H7       H        0.22410    0.13920    0.64770    1.000
    C11      C        0.29337    0.24115    0.63160    1.000
    H8       H        0.32180    0.26090    0.59290    1.000
    Ag2      Ag       0.81237    0.65180    0.83855    1.000
    O2       O        0.00052    0.66223    0.09063    1.000
    N3       N        0.87157    0.67175    0.98833    1.000
    N4       N        0.94353    0.53099    0.94033    1.000
    C12      C        0.88558    0.70720    0.08413    1.000
    H9       H        0.86927    0.72203    0.08663    1.000
    C13      C        0.92237    0.72273    0.17793    1.000
    H10      H        0.93097    0.74753    0.24223    1.000
    C14      C        0.94687    0.70083    0.17633    1.000
    H11      H        0.97237    0.71093    0.23873    1.000
    C15      C        0.93290    0.66348    0.07983    1.000
    C16      C        0.89502    0.65030    0.98743    1.000
    H12      H        0.88547    0.62553    0.92203    1.000
    C17      C        0.95989    0.64079    0.07143    1.000
    C18      C        0.93752    0.59195    0.04423    1.000
    C19      C        0.89567    0.56243    0.10523    1.000
    H13      H        0.87937    0.57273    0.16053    1.000
    C20      C        0.87897    0.51723    0.08173    1.000
    H14      H        0.85117    0.49663    0.12303    1.000
    C21      C        0.90307    0.50313    0.99843    1.000
    H15      H        0.89077    0.47253    0.98103    1.000
    C22      C        0.96004    0.57448    0.96493    1.000
    H16      H        0.98847    0.59423    0.92623    1.000
    Ag3      Ag       0.47904    0.98513    0.17189    1.000
    O3       O        0.66718    0.99557    0.42397    1.000
    N5       N        0.53823    0.00509    0.32167    1.000
    N6       N        0.61019    0.86433    0.27367    1.000
    C23      C        0.55224    0.04054    0.41747    1.000
    H17      H        0.53593    0.05537    0.41997    1.000
    C24      C        0.58903    0.05607    0.51127    1.000
    H18      H        0.59763    0.08087    0.57557    1.000
    C25      C        0.61353    0.03417    0.50967    1.000
    H19      H        0.63903    0.04427    0.57207    1.000
    C26      C        0.59956    0.99682    0.41317    1.000
    C27      C        0.56168    0.98364    0.32077    1.000
    H20      H        0.55213    0.95887    0.25537    1.000
    C28      C        0.62655    0.97413    0.40477    1.000
    C29      C        0.60418    0.92529    0.37757    1.000
    C30      C        0.56233    0.89577    0.43857    1.000
    H21      H        0.54603    0.90607    0.49387    1.000
    C31      C        0.54563    0.85057    0.41507    1.000
    H22      H        0.51783    0.82997    0.45637    1.000
    C32      C        0.56973    0.83647    0.33177    1.000
    H23      H        0.55743    0.80587    0.31437    1.000
    C33      C        0.62670    0.90782    0.29827    1.000
    H24      H        0.65513    0.92757    0.25957    1.000
    Ag4      Ag       0.68153    0.82723    0.50522    1.000
    O4       O        0.67110    0.00495    0.75730    1.000
    N7       N        0.66158    0.86648    0.65500    1.000
    N8       N        0.80234    0.07920    0.60700    1.000
    C34      C        0.62613    0.84504    0.75080    1.000
    H25      H        0.61130    0.81390    0.75330    1.000
    C35      C        0.61060    0.86630    0.84460    1.000
    H26      H        0.58580    0.85010    0.90890    1.000
    C36      C        0.63250    0.91270    0.84300    1.000
    H27      H        0.62240    0.92810    0.90540    1.000
    C37      C        0.66985    0.93608    0.74650    1.000
    C38      C        0.68303    0.91138    0.65410    1.000
    H28      H        0.70780    0.92660    0.58870    1.000
    C39      C        0.69254    0.98576    0.73810    1.000
    C40      C        0.74138    0.01223    0.71090    1.000
    C41      C        0.77090    0.99990    0.77190    1.000
    H29      H        0.76060    0.97330    0.82720    1.000
    C42      C        0.81610    0.02840    0.74840    1.000
    H30      H        0.83670    0.02120    0.78970    1.000
    C43      C        0.83020    0.06660    0.66510    1.000
    H31      H        0.86080    0.08490    0.64770    1.000
    C44      C        0.75885    0.05222    0.63160    1.000
    H32      H        0.73910    0.06090    0.59290    1.000
    Ag5      Ag       0.34820    0.16057    0.83855    1.000
    O5       O        0.33777    0.33828    0.09063    1.000
    N9       N        0.32825    0.19981    0.98833    1.000
    N10      N        0.46901    0.41253    0.94033    1.000
    C45      C        0.29280    0.17837    0.08413    1.000
    H33      H        0.27797    0.14723    0.08663    1.000
    C46      C        0.27727    0.19963    0.17793    1.000
    H34      H        0.25247    0.18343    0.24223    1.000
    C47      C        0.29917    0.24603    0.17633    1.000
    H35      H        0.28907    0.26143    0.23873    1.000
    C48      C        0.33652    0.26941    0.07983    1.000
    C49      C        0.34970    0.24471    0.98743    1.000
    H36      H        0.37447    0.25993    0.92203    1.000
    C50      C        0.35921    0.31909    0.07143    1.000
    C51      C        0.40805    0.34556    0.04423    1.000
    C52      C        0.43757    0.33323    0.10523    1.000
    H37      H        0.42727    0.30663    0.16053    1.000
    C53      C        0.48277    0.36173    0.08173    1.000
    H38      H        0.50337    0.35453    0.12303    1.000
    C54      C        0.49687    0.39993    0.99843    1.000
    H39      H        0.52747    0.41823    0.98103    1.000
    C55      C        0.42552    0.38555    0.96493    1.000
    H40      H        0.40577    0.39423    0.92623    1.000
    Ag6      Ag       0.01487    0.49390    0.17189    1.000
    O6       O        0.00443    0.67162    0.42397    1.000
    N11      N        0.99491    0.53315    0.32167    1.000
    N12      N        0.13567    0.74587    0.27367    1.000
    C56      C        0.95946    0.51171    0.41747    1.000
    H41      H        0.94463    0.48057    0.41997    1.000
    C57      C        0.94393    0.53297    0.51127    1.000
    H42      H        0.91913    0.51677    0.57557    1.000
    C58      C        0.96583    0.57937    0.50967    1.000
    H43      H        0.95573    0.59477    0.57207    1.000
    C59      C        0.00318    0.60275    0.41317    1.000
    C60      C        0.01636    0.57805    0.32077    1.000
    H44      H        0.04113    0.59327    0.25537    1.000
    C61      C        0.02587    0.65243    0.40477    1.000
    C62      C        0.07471    0.67890    0.37757    1.000
    C63      C        0.10423    0.66657    0.43857    1.000
    H45      H        0.09393    0.63997    0.49387    1.000
    C64      C        0.14943    0.69507    0.41507    1.000
    H46      H        0.17003    0.68787    0.45637    1.000
    C65      C        0.16353    0.73327    0.33177    1.000
    H47      H        0.19413    0.75157    0.31437    1.000
    C66      C        0.09218    0.71889    0.29827    1.000
    H48      H        0.07243    0.72757    0.25957    1.000
    Ag7      Ag       0.17277    0.85430    0.50522    1.000
    O7       O        0.99505    0.66615    0.75730    1.000
    N13      N        0.13352    0.79510    0.65500    1.000
    N14      N        0.92080    0.72314    0.60700    1.000
    C67      C        0.15496    0.78109    0.75080    1.000
    H49      H        0.18610    0.79740    0.75330    1.000
    C68      C        0.13370    0.74430    0.84460    1.000
    H50      H        0.14990    0.73570    0.90890    1.000
    C69      C        0.08730    0.71980    0.84300    1.000
    H51      H        0.07190    0.69430    0.90540    1.000
    C70      C        0.06392    0.73377    0.74650    1.000
    C71      C        0.08862    0.77165    0.65410    1.000
    H52      H        0.07340    0.78120    0.58870    1.000
    C72      C        0.01424    0.70678    0.73810    1.000
    C73      C        0.98777    0.72915    0.71090    1.000
    C74      C        0.00010    0.77100    0.77190    1.000
    H53      H        0.02670    0.78730    0.82720    1.000
    C75      C        0.97160    0.78770    0.74840    1.000
    H54      H        0.97880    0.81550    0.78970    1.000
    C76      C        0.93340    0.76360    0.66510    1.000
    H55      H        0.91510    0.77590    0.64770    1.000
    C77      C        0.94778    0.70663    0.63160    1.000
    H56      H        0.93910    0.67820    0.59290    1.000
    Ag8      Ag       0.83943    0.18763    0.83855    1.000
    O8       O        0.66172    0.99948    0.09063    1.000
    N15      N        0.80019    0.12843    0.98833    1.000
    N16      N        0.58747    0.05647    0.94033    1.000
    C78      C        0.82163    0.11442    0.08413    1.000
    H57      H        0.85277    0.13073    0.08663    1.000
    C79      C        0.80037    0.07763    0.17793    1.000
    H58      H        0.81657    0.06903    0.24223    1.000
    C80      C        0.75397    0.05313    0.17633    1.000
    H59      H        0.73857    0.02763    0.23873    1.000
    C81      C        0.73059    0.06710    0.07983    1.000
    C82      C        0.75529    0.10498    0.98743    1.000
    H60      H        0.74007    0.11453    0.92203    1.000
    C83      C        0.68091    0.04011    0.07143    1.000
    C84      C        0.65444    0.06248    0.04423    1.000
    C85      C        0.66677    0.10433    0.10523    1.000
    H61      H        0.69337    0.12063    0.16053    1.000
    C86      C        0.63827    0.12103    0.08173    1.000
    H62      H        0.64547    0.14883    0.12303    1.000
    C87      C        0.60007    0.09693    0.99843    1.000
    H63      H        0.58177    0.10923    0.98103    1.000
    C88      C        0.61445    0.03996    0.96493    1.000
    H64      H        0.60577    0.01153    0.92623    1.000
    Ag9      Ag       0.50610    0.52096    0.17189    1.000
    O9       O        0.32838    0.33282    0.42397    1.000
    N17      N        0.46685    0.46177    0.32167    1.000
    N18      N        0.25413    0.38981    0.27367    1.000
    C89      C        0.48829    0.44776    0.41747    1.000
    H65      H        0.51943    0.46407    0.41997    1.000
    C90      C        0.46703    0.41097    0.51127    1.000
    H66      H        0.48323    0.40237    0.57557    1.000
    C91      C        0.42063    0.38647    0.50967    1.000
    H67      H        0.40523    0.36097    0.57207    1.000
    C92      C        0.39725    0.40044    0.41317    1.000
    C93      C        0.42195    0.43832    0.32077    1.000
    H68      H        0.40673    0.44787    0.25537    1.000
    C94      C        0.34757    0.37345    0.40477    1.000
    C95      C        0.32110    0.39582    0.37757    1.000
    C96      C        0.33343    0.43767    0.43857    1.000
    H69      H        0.36003    0.45397    0.49387    1.000
    C97      C        0.30493    0.45437    0.41507    1.000
    H70      H        0.31213    0.48217    0.45637    1.000
    C98      C        0.26673    0.43027    0.33177    1.000
    H71      H        0.24843    0.44257    0.31437    1.000
    C99      C        0.28111    0.37330    0.29827    1.000
    H72      H        0.27243    0.34487    0.25957    1.000
    Ag10     Ag       0.85430    0.68153    0.49478    1.000
    O10      O        0.66615    0.67110    0.24270    1.000
    N19      N        0.79510    0.66158    0.34500    1.000
    N20      N        0.72314    0.80234    0.39300    1.000
    C100     C        0.78109    0.62613    0.24920    1.000
    H73      H        0.79740    0.61130    0.24670    1.000
    C101     C        0.74430    0.61060    0.15540    1.000
    H74      H        0.73570    0.58580    0.09110    1.000
    C102     C        0.71980    0.63250    0.15700    1.000
    H75      H        0.69430    0.62240    0.09460    1.000
    C103     C        0.73377    0.66985    0.25350    1.000
    C104     C        0.77165    0.68303    0.34590    1.000
    H76      H        0.78120    0.70780    0.41130    1.000
    C105     C        0.70678    0.69254    0.26190    1.000
    C106     C        0.72915    0.74138    0.28910    1.000
    C107     C        0.77100    0.77090    0.22810    1.000
    H77      H        0.78730    0.76060    0.17280    1.000
    C108     C        0.78770    0.81610    0.25160    1.000
    H78      H        0.81550    0.83670    0.21030    1.000
    C109     C        0.76360    0.83020    0.33490    1.000
    H79      H        0.77590    0.86080    0.35230    1.000
    C110     C        0.70663    0.75885    0.36840    1.000
    H80      H        0.67820    0.73910    0.40710    1.000
    Ag11     Ag       0.52096    0.01487    0.82811    1.000
    O11      O        0.33282    0.00443    0.57603    1.000
    N21      N        0.46177    0.99491    0.67833    1.000
    N22      N        0.38981    0.13567    0.72633    1.000
    C111     C        0.44776    0.95946    0.58253    1.000
    H81      H        0.46407    0.94463    0.58003    1.000
    C112     C        0.41097    0.94393    0.48873    1.000
    H82      H        0.40237    0.91913    0.42443    1.000
    C113     C        0.38647    0.96583    0.49033    1.000
    H83      H        0.36097    0.95573    0.42793    1.000
    C114     C        0.40044    0.00318    0.58683    1.000
    C115     C        0.43832    0.01636    0.67923    1.000
    H84      H        0.44787    0.04113    0.74463    1.000
    C116     C        0.37345    0.02587    0.59523    1.000
    C117     C        0.39582    0.07471    0.62243    1.000
    C118     C        0.43767    0.10423    0.56143    1.000
    H85      H        0.45397    0.09393    0.50613    1.000
    C119     C        0.45437    0.14943    0.58493    1.000
    H86      H        0.48217    0.17003    0.54363    1.000
    C120     C        0.43027    0.16353    0.66823    1.000
    H87      H        0.44257    0.19413    0.68563    1.000
    C121     C        0.37330    0.09218    0.70173    1.000
    H88      H        0.34487    0.07243    0.74043    1.000
    Ag12     Ag       0.18763    0.34820    0.16145    1.000
    O12      O        0.99948    0.33777    0.90937    1.000
    N23      N        0.12843    0.32825    0.01167    1.000
    N24      N        0.05647    0.46901    0.05967    1.000
    C122     C        0.11442    0.29280    0.91587    1.000
    H89      H        0.13073    0.27797    0.91337    1.000
    C123     C        0.07763    0.27727    0.82207    1.000
    H90      H        0.06903    0.25247    0.75777    1.000
    C124     C        0.05313    0.29917    0.82367    1.000
    H91      H        0.02763    0.28907    0.76127    1.000
    C125     C        0.06710    0.33652    0.92017    1.000
    C126     C        0.10498    0.34970    0.01257    1.000
    H92      H        0.11453    0.37447    0.07797    1.000
    C127     C        0.04011    0.35921    0.92857    1.000
    C128     C        0.06248    0.40805    0.95577    1.000
    C129     C        0.10433    0.43757    0.89477    1.000
    H93      H        0.12063    0.42727    0.83947    1.000
    C130     C        0.12103    0.48277    0.91827    1.000
    H94      H        0.14883    0.50337    0.87697    1.000
    C131     C        0.09693    0.49687    0.00157    1.000
    H95      H        0.10923    0.52747    0.01897    1.000
    C132     C        0.03996    0.42552    0.03507    1.000
    H96      H        0.01153    0.40577    0.07377    1.000
    Ag13     Ag       0.31847    0.17277    0.49478    1.000
    O13      O        0.32890    0.99505    0.24270    1.000
    N25      N        0.33842    0.13352    0.34500    1.000
    N26      N        0.19766    0.92080    0.39300    1.000
    C133     C        0.37387    0.15496    0.24920    1.000
    H97      H        0.38870    0.18610    0.24670    1.000
    C134     C        0.38940    0.13370    0.15540    1.000
    H98      H        0.41420    0.14990    0.09110    1.000
    C135     C        0.36750    0.08730    0.15700    1.000
    H99      H        0.37760    0.07190    0.09460    1.000
    C136     C        0.33015    0.06392    0.25350    1.000
    C137     C        0.31697    0.08862    0.34590    1.000
    H100     H        0.29220    0.07340    0.41130    1.000
    C138     C        0.30746    0.01424    0.26190    1.000
    C139     C        0.25862    0.98777    0.28910    1.000
    C140     C        0.22910    0.00010    0.22810    1.000
    H101     H        0.23940    0.02670    0.17280    1.000
    C141     C        0.18390    0.97160    0.25160    1.000
    H102     H        0.16330    0.97880    0.21030    1.000
    C142     C        0.16980    0.93340    0.33490    1.000
    H103     H        0.13920    0.91510    0.35230    1.000
    C143     C        0.24115    0.94778    0.36840    1.000
    H104     H        0.26090    0.93910    0.40710    1.000
    Ag14     Ag       0.98513    0.50610    0.82811    1.000
    O14      O        0.99557    0.32838    0.57603    1.000
    N27      N        0.00509    0.46685    0.67833    1.000
    N28      N        0.86433    0.25413    0.72633    1.000
    C144     C        0.04054    0.48829    0.58253    1.000
    H105     H        0.05537    0.51943    0.58003    1.000
    C145     C        0.05607    0.46703    0.48873    1.000
    H106     H        0.08087    0.48323    0.42443    1.000
    C146     C        0.03417    0.42063    0.49033    1.000
    H107     H        0.04427    0.40523    0.42793    1.000
    C147     C        0.99682    0.39725    0.58683    1.000
    C148     C        0.98364    0.42195    0.67923    1.000
    H108     H        0.95887    0.40673    0.74463    1.000
    C149     C        0.97413    0.34757    0.59523    1.000
    C150     C        0.92529    0.32110    0.62243    1.000
    C151     C        0.89577    0.33343    0.56143    1.000
    H109     H        0.90607    0.36003    0.50613    1.000
    C152     C        0.85057    0.30493    0.58493    1.000
    H110     H        0.82997    0.31213    0.54363    1.000
    C153     C        0.83647    0.26673    0.66823    1.000
    H111     H        0.80587    0.24843    0.68563    1.000
    C154     C        0.90782    0.28111    0.70173    1.000
    H112     H        0.92757    0.27243    0.74043    1.000
    Ag15     Ag       0.65180    0.83943    0.16145    1.000
    O15      O        0.66223    0.66172    0.90937    1.000
    N29      N        0.67175    0.80019    0.01167    1.000
    N30      N        0.53099    0.58747    0.05967    1.000
    C155     C        0.70720    0.82163    0.91587    1.000
    H113     H        0.72203    0.85277    0.91337    1.000
    C156     C        0.72273    0.80037    0.82207    1.000
    H114     H        0.74753    0.81657    0.75777    1.000
    C157     C        0.70083    0.75397    0.82367    1.000
    H115     H        0.71093    0.73857    0.76127    1.000
    C158     C        0.66348    0.73059    0.92017    1.000
    C159     C        0.65030    0.75529    0.01257    1.000
    H116     H        0.62553    0.74007    0.07797    1.000
    C160     C        0.64079    0.68091    0.92857    1.000
    C161     C        0.59195    0.65444    0.95577    1.000
    C162     C        0.56243    0.66677    0.89477    1.000
    H117     H        0.57273    0.69337    0.83947    1.000
    C163     C        0.51723    0.63827    0.91827    1.000
    H118     H        0.49663    0.64547    0.87697    1.000
    C164     C        0.50313    0.60007    0.00157    1.000
    H119     H        0.47253    0.58177    0.01897    1.000
    C165     C        0.57448    0.61445    0.03507    1.000
    H120     H        0.59423    0.60577    0.07377    1.000
    Ag16     Ag       0.82723    0.14570    0.49478    1.000
    O16      O        0.00495    0.33385    0.24270    1.000
    N31      N        0.86648    0.20490    0.34500    1.000
    N32      N        0.07920    0.27686    0.39300    1.000
    C166     C        0.84504    0.21891    0.24920    1.000
    H121     H        0.81390    0.20260    0.24670    1.000
    C167     C        0.86630    0.25570    0.15540    1.000
    H122     H        0.85010    0.26430    0.09110    1.000
    C168     C        0.91270    0.28020    0.15700    1.000
    H123     H        0.92810    0.30570    0.09460    1.000
    C169     C        0.93608    0.26623    0.25350    1.000
    C170     C        0.91138    0.22835    0.34590    1.000
    H124     H        0.92660    0.21880    0.41130    1.000
    C171     C        0.98576    0.29322    0.26190    1.000
    C172     C        0.01223    0.27085    0.28910    1.000
    C173     C        0.99990    0.22900    0.22810    1.000
    H125     H        0.97330    0.21270    0.17280    1.000
    C174     C        0.02840    0.21230    0.25160    1.000
    H126     H        0.02120    0.18450    0.21030    1.000
    C175     C        0.06660    0.23640    0.33490    1.000
    H127     H        0.08490    0.22410    0.35230    1.000
    C176     C        0.05222    0.29337    0.36840    1.000
    H128     H        0.06090    0.32180    0.40710    1.000
    Ag17     Ag       0.49390    0.47904    0.82811    1.000
    O17      O        0.67162    0.66718    0.57603    1.000
    N33      N        0.53315    0.53823    0.67833    1.000
    N34      N        0.74587    0.61019    0.72633    1.000
    C177     C        0.51171    0.55224    0.58253    1.000
    H129     H        0.48057    0.53593    0.58003    1.000
    C178     C        0.53297    0.58903    0.48873    1.000
    H130     H        0.51677    0.59763    0.42443    1.000
    C179     C        0.57937    0.61353    0.49033    1.000
    H131     H        0.59477    0.63903    0.42793    1.000
    C180     C        0.60275    0.59956    0.58683    1.000
    C181     C        0.57805    0.56168    0.67923    1.000
    H132     H        0.59327    0.55213    0.74463    1.000
    C182     C        0.65243    0.62655    0.59523    1.000
    C183     C        0.67890    0.60418    0.62243    1.000
    C184     C        0.66657    0.56233    0.56143    1.000
    H133     H        0.63997    0.54603    0.50613    1.000
    C185     C        0.69507    0.54563    0.58493    1.000
    H134     H        0.68787    0.51783    0.54363    1.000
    C186     C        0.73327    0.56973    0.66823    1.000
    H135     H        0.75157    0.55743    0.68563    1.000
    C187     C        0.71889    0.62670    0.70173    1.000
    H136     H        0.72757    0.65513    0.74043    1.000
    Ag18     Ag       0.16057    0.81237    0.16145    1.000
    O18      O        0.33828    0.00052    0.90937    1.000
    N35      N        0.19981    0.87157    0.01167    1.000
    N36      N        0.41253    0.94353    0.05967    1.000
    C188     C        0.17837    0.88558    0.91587    1.000
    H137     H        0.14723    0.86927    0.91337    1.000
    C189     C        0.19963    0.92237    0.82207    1.000
    H138     H        0.18343    0.93097    0.75777    1.000
    C190     C        0.24603    0.94687    0.82367    1.000
    H139     H        0.26143    0.97237    0.76127    1.000
    C191     C        0.26941    0.93290    0.92017    1.000
    C192     C        0.24471    0.89502    0.01257    1.000
    H140     H        0.25993    0.88547    0.07797    1.000
    C193     C        0.31909    0.95989    0.92857    1.000
    C194     C        0.34556    0.93752    0.95577    1.000
    C195     C        0.33323    0.89567    0.89477    1.000
    H141     H        0.30663    0.87937    0.83947    1.000
    C196     C        0.36173    0.87897    0.91827    1.000
    H142     H        0.35453    0.85117    0.87697    1.000
    C197     C        0.39993    0.90307    0.00157    1.000
    H143     H        0.41823    0.89077    0.01897    1.000
    C198     C        0.38555    0.96004    0.03507    1.000
    H144     H        0.39423    0.98847    0.07377    1.000
