# CIF file generated by openbabel 3.1.0, see https://openbabel.org
data_I
_chemical_name_common 'image0'
_cell_length_a 9.374
_cell_length_b 21.316
_cell_length_c 17.13
_cell_angle_alpha 90
_cell_angle_beta 118.334
_cell_angle_gamma 90
_space_group_name_H-M_alt 'P 1'
_space_group_name_Hall 'P 1'
loop_
    _symmetry_equiv_pos_as_xyz
    x,y,z
loop_
    _atom_site_label
    _atom_site_type_symbol
    _atom_site_fract_x
    _atom_site_fract_y
    _atom_site_fract_z
    _atom_site_occupancy
    N1       N        0.18130    0.75410    0.18070    1.000
    C1       C        0.27570    0.78560    0.25250    1.000
    H1       H        0.38450    0.77430    0.28260    1.000
    C2       C        0.02520    0.77040    0.14000    1.000
    H2       H        0.95420    0.74790    0.09000    1.000
    Cd1      Cd       0.72237    0.18701    0.38881    1.000
    Cd2      Cd       0.29308    0.99253    0.09029    1.000
    O1       O        0.47020    0.13350    0.36770    1.000
    O2       O        0.46440    0.21040    0.28420    1.000
    O3       O        0.31210    0.07770    0.17960    1.000
    O4       O        0.10870    0.01320    0.14780    1.000
    O5       O        0.91010    0.11810    0.99720    1.000
    O6       O        0.71680    0.07070    0.01320    1.000
    O7       O        0.96140    0.28510    0.02760    1.000
    O8       O        0.72120    0.24840    0.99650    1.000
    N2       N        0.83180    0.09240    0.38910    1.000
    C3       C        0.73920    0.04520    0.33950    1.000
    H3       H        0.62720    0.05030    0.31080    1.000
    C4       C        0.80180    0.98990    0.32920    1.000
    H4       H        0.73220    0.95850    0.29390    1.000
    C5       C        0.97050    0.97990    0.37130    1.000
    C6       C        0.06360    0.02910    0.42090    1.000
    H5       H        0.17580    0.02510    0.45020    1.000
    C7       C        0.99060    0.08810    0.42880    1.000
    H6       H        0.05520    0.12160    0.46120    1.000
    C8       C        0.04000    0.91830    0.35730    1.000
    H7       H        0.15680    0.91890    0.39380    1.000
    H8       H        0.99830    0.88380    0.37750    1.000
    C9       C        0.00270    0.90670    0.26700    1.000
    H9       H        0.03460    0.94380    0.24650    1.000
    H10      H        0.88560    0.90380    0.23270    1.000
    C10      C        0.07020    0.85200    0.24210    1.000
    C11      C        0.96370    0.81920    0.16840    1.000
    H11      H        0.85410    0.82940    0.13860    1.000
    C12      C        0.22690    0.83310    0.28620    1.000
    H12      H        0.29950    0.85260    0.33880    1.000
    C13      C        0.87290    0.24990    0.04470    1.000
    C14      C        0.95150    0.21060    0.12960    1.000
    H13      H        0.93220    0.23450    0.17260    1.000
    C15      C        0.13140    0.20680    0.16990    1.000
    H14      H        0.17620    0.24890    0.18180    1.000
    H15      H        0.15990    0.18730    0.12800    1.000
    C16      C        0.20680    0.16900    0.25650    1.000
    H16      H        0.17340    0.19000    0.29610    1.000
    C17      C        0.39320    0.16910    0.30530    1.000
    C18      C        0.13420    0.10320    0.24100    1.000
    H17      H        0.17670    0.08300    0.29920    1.000
    C19      C        0.94860    0.10860    0.20300    1.000
    H18      H        0.90270    0.06670    0.19000    1.000
    H19      H        0.92640    0.12620    0.24830    1.000
    C20      C        0.86260    0.14830    0.11940    1.000
    H20      H        0.75570    0.15870    0.11300    1.000
    C21      C        0.18720    0.06250    0.18420    1.000
    C22      C        0.83360    0.11110    0.03760    1.000
    N3       N        0.81870    0.25410    0.31930    1.000
    C23      C        0.72430    0.28560    0.24750    1.000
    H21      H        0.61550    0.27430    0.21740    1.000
    C24      C        0.97480    0.27040    0.36000    1.000
    H22      H        0.04580    0.24790    0.41000    1.000
    Cd3      Cd       0.27763    0.68701    0.11119    1.000
    Cd4      Cd       0.70692    0.49253    0.40971    1.000
    O9       O        0.52980    0.63350    0.13230    1.000
    O10      O        0.53560    0.71040    0.21580    1.000
    O11      O        0.68790    0.57770    0.32040    1.000
    O12      O        0.89130    0.51320    0.35220    1.000
    O13      O        0.08990    0.61810    0.50280    1.000
    O14      O        0.28320    0.57070    0.48680    1.000
    O15      O        0.03860    0.78510    0.47240    1.000
    O16      O        0.27880    0.74840    0.50350    1.000
    N4       N        0.16820    0.59240    0.11090    1.000
    C25      C        0.26080    0.54520    0.16050    1.000
    H23      H        0.37280    0.55030    0.18920    1.000
    C26      C        0.19820    0.48990    0.17080    1.000
    H24      H        0.26780    0.45850    0.20610    1.000
    C27      C        0.02950    0.47990    0.12870    1.000
    C28      C        0.93640    0.52910    0.07910    1.000
    H25      H        0.82420    0.52510    0.04980    1.000
    C29      C        0.00940    0.58810    0.07120    1.000
    H26      H        0.94480    0.62160    0.03880    1.000
    C30      C        0.96000    0.41830    0.14270    1.000
    H27      H        0.84320    0.41890    0.10620    1.000
    H28      H        0.00170    0.38380    0.12250    1.000
    C31      C        0.99730    0.40670    0.23300    1.000
    H29      H        0.96540    0.44380    0.25350    1.000
    H30      H        0.11440    0.40380    0.26730    1.000
    C32      C        0.92980    0.35200    0.25790    1.000
    C33      C        0.03630    0.31920    0.33160    1.000
    H31      H        0.14590    0.32940    0.36140    1.000
    C34      C        0.77310    0.33310    0.21380    1.000
    H32      H        0.70050    0.35260    0.16120    1.000
    C35      C        0.12710    0.74990    0.45530    1.000
    C36      C        0.04850    0.71060    0.37040    1.000
    H33      H        0.06780    0.73450    0.32740    1.000
    C37      C        0.86860    0.70680    0.33010    1.000
    H34      H        0.82380    0.74890    0.31820    1.000
    H35      H        0.84010    0.68730    0.37200    1.000
    C38      C        0.79320    0.66900    0.24350    1.000
    H36      H        0.82660    0.69000    0.20390    1.000
    C39      C        0.60680    0.66910    0.19470    1.000
    C40      C        0.86580    0.60320    0.25900    1.000
    H37      H        0.82330    0.58300    0.20080    1.000
    C41      C        0.05140    0.60860    0.29700    1.000
    H38      H        0.09730    0.56670    0.31000    1.000
    H39      H        0.07360    0.62620    0.25170    1.000
    C42      C        0.13740    0.64830    0.38060    1.000
    H40      H        0.24430    0.65870    0.38700    1.000
    C43      C        0.81280    0.56250    0.31580    1.000
    C44      C        0.16640    0.61110    0.46240    1.000
    N5       N        0.81870    0.24590    0.81930    1.000
    C45      C        0.72430    0.21440    0.74750    1.000
    H41      H        0.61550    0.22570    0.71740    1.000
    C46      C        0.97480    0.22960    0.86000    1.000
    H42      H        0.04580    0.25210    0.91000    1.000
    Cd5      Cd       0.27763    0.81299    0.61119    1.000
    Cd6      Cd       0.70692    0.00747    0.90971    1.000
    O17      O        0.52980    0.86650    0.63230    1.000
    O18      O        0.53560    0.78960    0.71580    1.000
    O19      O        0.68790    0.92230    0.82040    1.000
    O20      O        0.89130    0.98680    0.85220    1.000
    O21      O        0.08990    0.88190    0.00280    1.000
    O22      O        0.28320    0.92930    0.98680    1.000
    O23      O        0.03860    0.71490    0.97240    1.000
    O24      O        0.27880    0.75160    0.00350    1.000
    N6       N        0.16820    0.90760    0.61090    1.000
    C47      C        0.26080    0.95480    0.66050    1.000
    H43      H        0.37280    0.94970    0.68920    1.000
    C48      C        0.19820    0.01010    0.67080    1.000
    H44      H        0.26780    0.04150    0.70610    1.000
    C49      C        0.02950    0.02010    0.62870    1.000
    C50      C        0.93640    0.97090    0.57910    1.000
    H45      H        0.82420    0.97490    0.54980    1.000
    C51      C        0.00940    0.91190    0.57120    1.000
    H46      H        0.94480    0.87840    0.53880    1.000
    C52      C        0.96000    0.08170    0.64270    1.000
    H47      H        0.84320    0.08110    0.60620    1.000
    H48      H        0.00170    0.11620    0.62250    1.000
    C53      C        0.99730    0.09330    0.73300    1.000
    H49      H        0.96540    0.05620    0.75350    1.000
    H50      H        0.11440    0.09620    0.76730    1.000
    C54      C        0.92980    0.14800    0.75790    1.000
    C55      C        0.03630    0.18080    0.83160    1.000
    H51      H        0.14590    0.17060    0.86140    1.000
    C56      C        0.77310    0.16690    0.71380    1.000
    H52      H        0.70050    0.14740    0.66120    1.000
    C57      C        0.12710    0.75010    0.95530    1.000
    C58      C        0.04850    0.78940    0.87040    1.000
    H53      H        0.06780    0.76550    0.82740    1.000
    C59      C        0.86860    0.79320    0.83010    1.000
    H54      H        0.82380    0.75110    0.81820    1.000
    H55      H        0.84010    0.81270    0.87200    1.000
    C60      C        0.79320    0.83100    0.74350    1.000
    H56      H        0.82660    0.81000    0.70390    1.000
    C61      C        0.60680    0.83090    0.69470    1.000
    C62      C        0.86580    0.89680    0.75900    1.000
    H57      H        0.82330    0.91700    0.70080    1.000
    C63      C        0.05140    0.89140    0.79700    1.000
    H58      H        0.09730    0.93330    0.81000    1.000
    H59      H        0.07360    0.87380    0.75170    1.000
    C64      C        0.13740    0.85170    0.88060    1.000
    H60      H        0.24430    0.84130    0.88700    1.000
    C65      C        0.81280    0.93750    0.81580    1.000
    C66      C        0.16640    0.88890    0.96240    1.000
    N7       N        0.18130    0.74590    0.68070    1.000
    C67      C        0.27570    0.71440    0.75250    1.000
    H61      H        0.38450    0.72570    0.78260    1.000
    C68      C        0.02520    0.72960    0.64000    1.000
    H62      H        0.95420    0.75210    0.59000    1.000
    Cd7      Cd       0.72237    0.31299    0.88881    1.000
    Cd8      Cd       0.29308    0.50747    0.59029    1.000
    O25      O        0.47020    0.36650    0.86770    1.000
    O26      O        0.46440    0.28960    0.78420    1.000
    O27      O        0.31210    0.42230    0.67960    1.000
    O28      O        0.10870    0.48680    0.64780    1.000
    O29      O        0.91010    0.38190    0.49720    1.000
    O30      O        0.71680    0.42930    0.51320    1.000
    O31      O        0.96140    0.21490    0.52760    1.000
    O32      O        0.72120    0.25160    0.49650    1.000
    N8       N        0.83180    0.40760    0.88910    1.000
    C69      C        0.73920    0.45480    0.83950    1.000
    H63      H        0.62720    0.44970    0.81080    1.000
    C70      C        0.80180    0.51010    0.82920    1.000
    H64      H        0.73220    0.54150    0.79390    1.000
    C71      C        0.97050    0.52010    0.87130    1.000
    C72      C        0.06360    0.47090    0.92090    1.000
    H65      H        0.17580    0.47490    0.95020    1.000
    C73      C        0.99060    0.41190    0.92880    1.000
    H66      H        0.05520    0.37840    0.96120    1.000
    C74      C        0.04000    0.58170    0.85730    1.000
    H67      H        0.15680    0.58110    0.89380    1.000
    H68      H        0.99830    0.61620    0.87750    1.000
    C75      C        0.00270    0.59330    0.76700    1.000
    H69      H        0.03460    0.55620    0.74650    1.000
    H70      H        0.88560    0.59620    0.73270    1.000
    C76      C        0.07020    0.64800    0.74210    1.000
    C77      C        0.96370    0.68080    0.66840    1.000
    H71      H        0.85410    0.67060    0.63860    1.000
    C78      C        0.22690    0.66690    0.78620    1.000
    H72      H        0.29950    0.64740    0.83880    1.000
    C79      C        0.87290    0.25010    0.54470    1.000
    C80      C        0.95150    0.28940    0.62960    1.000
    H73      H        0.93220    0.26550    0.67260    1.000
    C81      C        0.13140    0.29320    0.66990    1.000
    H74      H        0.17620    0.25110    0.68180    1.000
    H75      H        0.15990    0.31270    0.62800    1.000
    C82      C        0.20680    0.33100    0.75650    1.000
    H76      H        0.17340    0.31000    0.79610    1.000
    C83      C        0.39320    0.33090    0.80530    1.000
    C84      C        0.13420    0.39680    0.74100    1.000
    H77      H        0.17670    0.41700    0.79920    1.000
    C85      C        0.94860    0.39140    0.70300    1.000
    H78      H        0.90270    0.43330    0.69000    1.000
    H79      H        0.92640    0.37380    0.74830    1.000
    C86      C        0.86260    0.35170    0.61940    1.000
    H80      H        0.75570    0.34130    0.61300    1.000
    C87      C        0.18720    0.43750    0.68420    1.000
    C88      C        0.83360    0.38890    0.53760    1.000
