# CIF file generated by openbabel 3.1.0, see https://openbabel.org
data_I
_chemical_name_common 'image0'
_cell_length_a 10.4073
_cell_length_b 17.8174
_cell_length_c 7.5278
_cell_angle_alpha 90
_cell_angle_beta 108.474
_cell_angle_gamma 90
_space_group_name_H-M_alt 'P 1'
_space_group_name_Hall 'P 1'
loop_
    _symmetry_equiv_pos_as_xyz
    x,y,z
loop_
    _atom_site_label
    _atom_site_type_symbol
    _atom_site_fract_x
    _atom_site_fract_y
    _atom_site_fract_z
    _atom_site_occupancy
    Zn1      Zn       0.15965    0.72269    0.15033    1.000
    O1       O        0.19000    0.63450    0.01010    1.000
    O2       O        0.19820    0.70000    0.76190    1.000
    O3       O        0.33970    0.65320    0.47030    1.000
    O4       O        0.11760    0.66970    0.35330    1.000
    C1       C        0.18200    0.56790    0.73710    1.000
    C2       C        0.19870    0.56780    0.56010    1.000
    C3       C        0.18920    0.63910    0.84380    1.000
    C4       C        0.22330    0.63670    0.45970    1.000
    Zn2      Zn       0.65965    0.22269    0.15033    1.000
    O5       O        0.69000    0.13450    0.01010    1.000
    O6       O        0.69820    0.20000    0.76190    1.000
    O7       O        0.83970    0.15320    0.47030    1.000
    O8       O        0.61760    0.16970    0.35330    1.000
    C5       C        0.68200    0.06790    0.73710    1.000
    C6       C        0.69870    0.06780    0.56010    1.000
    C7       C        0.68920    0.13910    0.84380    1.000
    C8       C        0.72330    0.13670    0.45970    1.000
    Zn3      Zn       0.84035    0.72269    0.84967    1.000
    O9       O        0.81000    0.63450    0.98990    1.000
    O10      O        0.80180    0.70000    0.23810    1.000
    O11      O        0.66030    0.65320    0.52970    1.000
    O12      O        0.88240    0.66970    0.64670    1.000
    C9       C        0.81800    0.56790    0.26290    1.000
    C10      C        0.80130    0.56780    0.43990    1.000
    C11      C        0.81080    0.63910    0.15620    1.000
    C12      C        0.77670    0.63670    0.54030    1.000
    Zn4      Zn       0.34035    0.22269    0.84967    1.000
    O13      O        0.31000    0.13450    0.98990    1.000
    O14      O        0.30180    0.20000    0.23810    1.000
    O15      O        0.16030    0.15320    0.52970    1.000
    O16      O        0.38240    0.16970    0.64670    1.000
    C13      C        0.31800    0.06790    0.26290    1.000
    C14      C        0.30130    0.06780    0.43990    1.000
    C15      C        0.31080    0.13910    0.15620    1.000
    C16      C        0.27670    0.13670    0.54030    1.000
    Zn5      Zn       0.84035    0.27731    0.84967    1.000
    O17      O        0.81000    0.36550    0.98990    1.000
    O18      O        0.80180    0.30000    0.23810    1.000
    O19      O        0.66030    0.34680    0.52970    1.000
    O20      O        0.88240    0.33030    0.64670    1.000
    C17      C        0.81800    0.43210    0.26290    1.000
    C18      C        0.80130    0.43220    0.43990    1.000
    C19      C        0.81080    0.36090    0.15620    1.000
    C20      C        0.77670    0.36330    0.54030    1.000
    Zn6      Zn       0.34035    0.77731    0.84967    1.000
    O21      O        0.31000    0.86550    0.98990    1.000
    O22      O        0.30180    0.80000    0.23810    1.000
    O23      O        0.16030    0.84680    0.52970    1.000
    O24      O        0.38240    0.83030    0.64670    1.000
    C21      C        0.31800    0.93210    0.26290    1.000
    C22      C        0.30130    0.93220    0.43990    1.000
    C23      C        0.31080    0.86090    0.15620    1.000
    C24      C        0.27670    0.86330    0.54030    1.000
    Zn7      Zn       0.15965    0.27731    0.15033    1.000
    O25      O        0.19000    0.36550    0.01010    1.000
    O26      O        0.19820    0.30000    0.76190    1.000
    O27      O        0.33970    0.34680    0.47030    1.000
    O28      O        0.11760    0.33030    0.35330    1.000
    C25      C        0.18200    0.43210    0.73710    1.000
    C26      C        0.19870    0.43220    0.56010    1.000
    C27      C        0.18920    0.36090    0.84380    1.000
    C28      C        0.22330    0.36330    0.45970    1.000
    Zn8      Zn       0.65965    0.77731    0.15033    1.000
    O29      O        0.69000    0.86550    0.01010    1.000
    O30      O        0.69820    0.80000    0.76190    1.000
    O31      O        0.83970    0.84680    0.47030    1.000
    O32      O        0.61760    0.83030    0.35330    1.000
    C29      C        0.68200    0.93210    0.73710    1.000
    C30      C        0.69870    0.93220    0.56010    1.000
    C31      C        0.68920    0.86090    0.84380    1.000
    C32      C        0.72330    0.86330    0.45970    1.000
    Na1      Na       0.00000    0.75322    0.50000    1.000
    Na2      Na       0.50000    0.25322    0.50000    1.000
    Na3      Na       0.00000    0.24678    0.50000    1.000
    Na4      Na       0.50000    0.74678    0.50000    1.000
    O33      O        0.00000    0.77030    0.00000    1.000
    H1       H        0.00000    0.81760    0.00000    1.000
    O34      O        0.50000    0.27030    0.00000    1.000
    H2       H        0.50000    0.31760    0.00000    1.000
    O35      O        0.00000    0.22970    0.00000    1.000
    H3       H        0.00000    0.18240    0.00000    1.000
    O36      O        0.50000    0.72970    0.00000    1.000
    H4       H        0.50000    0.68240    0.00000    1.000
    C33      C        0.17070    0.50000    0.82070    1.000
    C34      C        0.20440    0.50000    0.47380    1.000
    H5       H        0.16100    0.50000    0.93900    1.000
    H6       H        0.21600    0.50000    0.35600    1.000
    C35      C        0.67070    0.00000    0.82070    1.000
    C36      C        0.70440    0.00000    0.47380    1.000
    H7       H        0.66100    0.00000    0.93900    1.000
    H8       H        0.71600    0.00000    0.35600    1.000
    C37      C        0.82930    0.50000    0.17930    1.000
    C38      C        0.79560    0.50000    0.52620    1.000
    H9       H        0.83900    0.50000    0.06100    1.000
    H10      H        0.78400    0.50000    0.64400    1.000
    C39      C        0.32930    0.00000    0.17930    1.000
    C40      C        0.29560    0.00000    0.52620    1.000
    H11      H        0.33900    0.00000    0.06100    1.000
    H12      H        0.28400    0.00000    0.64400    1.000
